Circuit: * C:\ltspice\circuit.asc

Early termination of direct N-R iteration.
Direct Newton iteration failed to find .op point.  (Use ".option noopiter" to skip.)
Starting Gmin stepping
Gmin = 10
vernier = 0.5
vernier = 0.25
vernier = 0.125
vernier = 0.0625
Gmin = 7.52941
vernier = 0.03125
vernier = 0.015625
vernier = 0.0078125
vernier = 0.00390625
Gmin = 7.35611
vernier = 0.00195313
vernier = 0.000976563
vernier = 0.000488281
Gmin = 0
Gmin stepping failed

Starting source stepping with srcstepmethod=0
Source Step = 3.0303%
Source Step = 33.3333%
Source Step = 63.6364%
Source Step = 93.9394%
Source stepping succeeded in finding the operating point.


Date: Mon Nov 26 13:13:09 2018
Total elapsed time: 1.063 seconds.

tnom = 27
temp = 27
method = modified trap
totiter = 3840
traniter = 2161
tranpoints = 1057
accept = 1054
rejected = 3
matrix size = 76
fillins = 543
solver = Alternate
Matrix Compiler1: 87.05 KB object code size  29.3/25.1/[18.0]
Matrix Compiler2: 18.49 KB object code size  6.5/7.3/[4.4]

