Circuit: * C:\ltspice\circuit.asc

Direct Newton iteration failed to find .op point.  (Use ".option noopiter" to skip.)
Starting Gmin stepping
Gmin = 10
Gmin = 1.07374
vernier = 0.5
vernier = 0.25
vernier = 0.125
vernier = 0.0625
Gmin = 1.08884
vernier = 0.03125
vernier = 0.015625
vernier = 0.0078125
Gmin = 1.05751
vernier = 0.00390625
vernier = 0.00195313
vernier = 0.000976563
vernier = 0.000488281
Gmin = 1.05815
Gmin = 0
Gmin stepping aborted per request.

Starting source stepping with srcstepmethod=0
Source Step = 3.0303%
Source Step = 33.3333%
Source Step = 63.6364%
Source Step = 88.6364%
Source Step = 96.2121%
Source stepping succeeded in finding the operating point.




Date: Mon Nov 19 09:47:36 2018
Total elapsed time: 15.393 seconds.

tnom = 27
temp = 27
method = modified trap
totiter = 9876
traniter = 7302
tranpoints = 2419
accept = 1961
rejected = 458
matrix size = 528
fillins = 1056
solver = Normal
Thread vector: 109.8/72.1[4] 97.4/19.3[4] 39.5/20.0[4] 9.0/11.2[1]  2592/500
Matrix Compiler1: 64.77 KB object code size  87.3/44.4/[13.2]
Matrix Compiler2: 69.52 KB object code size  37.5/64.0/[11.1]

