Circuit: * E:\ltspice\circuit.asc

Early termination of direct N-R iteration.
Direct Newton iteration failed to find .op point.  (Use ".option noopiter" to skip.)
Starting Gmin stepping
Gmin = 10
vernier = 0.5
vernier = 0.25
vernier = 0.125
vernier = 0.0625
Gmin = 7.52941
vernier = 0.03125
vernier = 0.015625
vernier = 0.0078125
vernier = 0.00390625
Gmin = 7.35611
vernier = 0.00195313
vernier = 0.000976563
vernier = 0.000488281
Gmin = 0
Gmin stepping failed

Starting source stepping with srcstepmethod=0
Source Step = 3.0303%
vernier = 0.25
Source Step = 0.0177557%
Starting source stepping with srcstepmethod=1
Source Step = 3.0303%
vernier = 0.25
Source stepping failed

Pseudo Transient succeeded in finding the operating point at 327.688 ms.

Date: Wed Nov 21 21:23:23 2018
Total elapsed time: 2.524 seconds.

tnom = 27
temp = 27
method = modified trap
totiter = 10156
traniter = 2605
tranpoints = 1215
accept = 1133
rejected = 86
matrix size = 76
fillins = 668
solver = Alternate
Matrix Compiler1: 121.70 KB object code size  20.0/15.2/[11.5]
Matrix Compiler2: 21.06 KB object code size  2.7/2.6/[1.2]

