Circuit: * C:\ltspice\circuit.asc

Early termination of direct N-R iteration.
Direct Newton iteration failed to find .op point.  (Use ".option noopiter" to skip.)
Starting Gmin stepping
Gmin = 10
Gmin = 1.07374
Gmin = 0.115292
Gmin = 0.0123794
Gmin = 0.00132923
Gmin = 0.000142725
Gmin = 1.5325e-005
Gmin = 1.6455e-006
Gmin = 1.76685e-007
Gmin = 1.89714e-008
Gmin = 2.03704e-009
Gmin = 2.18725e-010
Gmin = 2.34854e-011
Gmin = 2.52173e-012
Gmin = 2.70769e-013
Gmin = 0
Gmin stepping succeeded in finding the operating point.

Changing Tseed to 4.88281e-011
Changing Tseed to 4.88281e-013
Changing Tseed to 4.88281e-010
Changing Tseed to 4.88281e-014
Changing Tseed to 4.88281e-009
Heightened Def Con from 4.88281e-009 ++++++++++to 5.88281e-009
Heightened Def Con from 7.78831e-009 ++to 8.78831e-009
Heightened Def Con from 8.78831e-009 to 9.78831e-009
Heightened Def Con from 1.17883e-008 ++to 1.27883e-008
Heightened Def Con from 1.27883e-008 +to 1.37883e-008
Heightened Def Con from 1.37883e-008 +to 1.39133e-008
Heightened Def Con from 1.39133e-008 +++++++++to 1.49133e-008
Heightened Def Con from 1.49133e-008 +to 1.50383e-008
Heightened Def Con from 1.50383e-008 to 1.60383e-008
Heightened Def Con from 1.60383e-008 ++++++to 1.70383e-008
Heightened Def Con from 1.70383e-008 ++++++++++to 1.80383e-008
Heightened Def Con from 1.80383e-008 +++++++++to 1.90383e-008
Heightened Def Con from 1.90383e-008 +++++++to 2.00383e-008
Heightened Def Con from 2.00383e-008 +++++++++++to 2.10383e-008
Heightened Def Con from 2.10383e-008 +to 2.20383e-008
Heightened Def Con from 2.20383e-008 +++++++to 2.21633e-008
Heightened Def Con from 2.21633e-008 ++++++++to 2.31633e-008
Heightened Def Con from 2.31633e-008 ++++to 2.41633e-008
Heightened Def Con from 2.41633e-008 +++to 2.51633e-008
Heightened Def Con from 2.71633e-008 ++++++++++to 2.81633e-008
Heightened Def Con from 2.81633e-008 to 2.91633e-008
Heightened Def Con from 2.91946e-008 +++to 3.01946e-008
Heightened Def Con from 3.01946e-008 ++++++++to 3.11946e-008
Heightened Def Con from 3.11946e-008 ++++to 3.21946e-008
Heightened Def Con from 3.21946e-008 to 3.31946e-008
Heightened Def Con from 3.32258e-008 ++++++++++to 3.52258e-008
Heightened Def Con from 3.52258e-008 ++++++++++to 3.62258e-008
Heightened Def Con from 3.82258e-008 to 3.92258e-008
Heightened Def Con from 4.12258e-008 +to 4.22258e-008
Heightened Def Con from 4.22258e-008 to 4.32258e-008
Heightened Def Con from 4.32258e-008 ++++++to 4.42258e-008
Heightened Def Con from 4.42258e-008 +++++to 4.52258e-008
Heightened Def Con from 4.52258e-008 ++++++++++to 4.62258e-008
Heightened Def Con from 4.62258e-008 ++++++to 4.63508e-008
Heightened Def Con from 4.63508e-008 +++++++++++to 4.73508e-008
Heightened Def Con from 4.73508e-008 ++++++to 4.83508e-008
Heightened Def Con from 5.03508e-008 +++to 5.13508e-008
Heightened Def Con from 5.13508e-008 +to 5.13528e-008
Heightened Def Con from 5.13528e-008 ++++++++++to 5.23528e-008
Heightened Def Con from 5.23528e-008 ++to 5.23684e-008
Heightened Def Con from 5.23684e-008 to 5.24934e-008
Heightened Def Con from 5.24934e-008 +++to 5.34934e-008
Heightened Def Con from 5.54934e-008 to 5.56184e-008
Heightened Def Con from 5.56184e-008 to 5.66184e-008
Heightened Def Con from 5.66184e-008 ++++++to 5.76184e-008
Heightened Def Con from 5.96184e-008 +++to 6.06184e-008
Heightened Def Con from 6.26184e-008 ++++++++++to 6.36184e-008
Heightened Def Con from 6.36184e-008 to 6.46184e-008
Heightened Def Con from 6.46184e-008 +to 6.56184e-008
Heightened Def Con from 6.56184e-008 ++++++++++to 6.66184e-008
Heightened Def Con from 6.66184e-008 ++++++++to 6.76184e-008
Heightened Def Con from 6.78684e-008 ++++++++++to 6.88684e-008
Heightened Def Con from 6.88684e-008 +to 6.89934e-008
Heightened Def Con from 6.89934e-008 +to 6.91184e-008
Heightened Def Con from 6.91184e-008 +++++to 7.01184e-008
Heightened Def Con from 7.21184e-008 ++++++++++to 7.31184e-008
Heightened Def Con from 7.51184e-008 ++to 7.61184e-008
Heightened Def Con from 7.61184e-008 ++++++++++to 7.71184e-008
Heightened Def Con from 7.71184e-008 to 7.72434e-008
Heightened Def Con from 7.72434e-008 +++to 7.73684e-008
Heightened Def Con from 7.73684e-008 ++++++to 7.83684e-008
Heightened Def Con from 7.83684e-008 ++++to 7.93684e-008
Heightened Def Con from 7.93684e-008 to 8.03684e-008
Heightened Def Con from 8.03684e-008 ++to 8.13684e-008
Heightened Def Con from 8.13684e-008 +++++++++to 8.23684e-008
Heightened Def Con from 8.26184e-008 ++++to 8.27434e-008
Heightened Def Con from 8.27746e-008 +to 8.37746e-008
Heightened Def Con from 8.37746e-008 +++++++to 8.47746e-008
Heightened Def Con from 8.47746e-008 +++++++++to 8.57746e-008
Heightened Def Con from 8.57746e-008 to 8.58996e-008
Heightened Def Con from 8.58996e-008 ++++++++++to 8.78996e-008
Heightened Def Con from 8.78996e-008 +++to 8.88996e-008
Heightened Def Con from 8.88996e-008 ++++++to 8.98996e-008
Heightened Def Con from 8.98996e-008 +to 9.08996e-008
Heightened Def Con from 9.08996e-008 +++++++++to 9.18996e-008
Heightened Def Con from 9.18996e-008 ++++++++++to 9.28996e-008
Heightened Def Con from 9.28996e-008 to 9.38996e-008
Heightened Def Con from 9.38996e-008 to 9.48996e-008
Heightened Def Con from 9.48996e-008 ++++++to 9.58996e-008
Heightened Def Con from 9.58996e-008 ++++++++++to 9.68996e-008
Heightened Def Con from 9.68996e-008 +to 9.78996e-008
Heightened Def Con from 9.78996e-008 +++++++++to 9.88996e-008
Heightened Def Con from 9.88996e-008 +to 9.98996e-008
Heightened Def Con from 9.98996e-008 ++++to 1.009e-007
Heightened Def Con from 1.009e-007 +++++++++to 1.019e-007
Heightened Def Con from 1.019e-007 ++++++++to 1.029e-007
Heightened Def Con from 1.029e-007 +to 1.03025e-007
Heightened Def Con from 1.03025e-007 ++++++++to 1.04025e-007
Heightened Def Con from 1.04025e-007 +++++++++to 1.05025e-007
Heightened Def Con from 1.05025e-007 +++++++++to 1.06025e-007
Heightened Def Con from 1.06025e-007 +to 1.07025e-007
Heightened Def Con from 1.07025e-007 ++++++++to 1.08025e-007
Heightened Def Con from 1.08025e-007 +++++++++to 1.09025e-007
Heightened Def Con from 1.09025e-007 ++to 1.10025e-007
Heightened Def Con from 1.10025e-007 ++++++++++to 1.11025e-007
Heightened Def Con from 1.11025e-007 +to 1.1104e-007
Heightened Def Con from 1.1104e-007 ++++++++++to 1.1204e-007
Heightened Def Con from 1.1204e-007 ++++++++++to 1.1304e-007
Heightened Def Con from 1.1304e-007 ++++++++++++to 1.1404e-007
Heightened Def Con from 1.1404e-007 +++++++++++to 1.1504e-007
Heightened Def Con from 1.1504e-007 ++++to 1.1604e-007
Heightened Def Con from 1.1604e-007 to 1.1704e-007
Heightened Def Con from 1.1704e-007 to 1.1804e-007
Heightened Def Con from 1.1804e-007 +++to 1.1904e-007
Heightened Def Con from 1.1904e-007 +++++to 1.2004e-007
Heightened Def Con from 1.2004e-007 to 1.2104e-007
Heightened Def Con from 1.2104e-007 ++++++to 1.2204e-007
Heightened Def Con from 1.2204e-007 +++++to 1.2304e-007
Heightened Def Con from 1.2304e-007 +++++++to 1.2404e-007
Heightened Def Con from 1.2404e-007 ++++++++++to 1.2504e-007
Heightened Def Con from 1.2504e-007 +to 1.2604e-007
Heightened Def Con from 1.2604e-007 to 1.2704e-007
Heightened Def Con from 1.2704e-007 ++to 1.2804e-007
Heightened Def Con from 1.2804e-007 to 1.2904e-007
Heightened Def Con from 1.2904e-007 +++++++++to 1.3004e-007
Heightened Def Con from 1.3004e-007 ++++++++to 1.30165e-007
Heightened Def Con from 1.30165e-007 ++to 1.31165e-007
Heightened Def Con from 1.32183e-007 to 1.33183e-007
Heightened Def Con from 1.33183e-007 to 1.34183e-007
Heightened Def Con from 1.35364e-007 ++++++++to 1.36364e-007
Heightened Def Con from 1.36364e-007 +to 1.37364e-007
Heightened Def Con from 1.37364e-007 +to 1.37489e-007
Heightened Def Con from 1.37489e-007 +to 1.38489e-007
Heightened Def Con from 1.3946e-007 ++++to 1.4046e-007
Heightened Def Con from 1.4046e-007 +to 1.4146e-007
Heightened Def Con from 1.4146e-007 +to 1.4246e-007
Heightened Def Con from 1.4246e-007 +to 1.4346e-007
Heightened Def Con from 1.4346e-007 ++++to 1.4446e-007
Heightened Def Con from 1.4446e-007 ++++++to 1.4546e-007
Heightened Def Con from 1.4546e-007 +to 1.4646e-007
Heightened Def Con from 1.4646e-007 ++++++++to 1.4746e-007
Heightened Def Con from 1.4746e-007 +++++to 1.47585e-007
Heightened Def Con from 1.47585e-007 +++to 1.48585e-007
Heightened Def Con from 1.48585e-007 to 1.4871e-007
Heightened Def Con from 1.4871e-007 ++++to 1.5071e-007
Heightened Def Con from 1.5071e-007 ++++to 1.5271e-007
Heightened Def Con from 1.5271e-007 +++++++++to 1.5471e-007
Heightened Def Con from 1.5471e-007 ++++++++to 1.5671e-007
Heightened Def Con from 1.5671e-007 +++++++++to 1.5871e-007
Heightened Def Con from 1.5871e-007 +++to 1.58835e-007
Heightened Def Con from 1.58835e-007 +++++++++to 1.62835e-007
Heightened Def Con from 1.62835e-007 +++++++++to 1.64835e-007
Heightened Def Con from 1.64835e-007 ++++++++to 1.68835e-007
Heightened Def Con from 1.68975e-007 ++++to 1.701e-007
Heightened Def Con from 1.701e-007 ++++++++++to 1.731e-007
Heightened Def Con from 1.731e-007 ++++++++++to 1.771e-007
Heightened Def Con from 1.771e-007 +++++++to 1.791e-007
Heightened Def Con from 1.791e-007 ++++++to 1.821e-007
Heightened Def Con from 1.821e-007 ++++++++to 1.861e-007
Heightened Def Con from 1.861e-007 ++to 1.86225e-007
Heightened Def Con from 1.86225e-007 +++++to 1.8635e-007
Heightened Def Con from 1.8635e-007 +++++++++to 1.9135e-007
Heightened Def Con from 1.9135e-007 ++++++++to 1.9435e-007
Heightened Def Con from 1.9435e-007 +++++++++to 1.9735e-007
Heightened Def Con from 1.9735e-007 ++++to 1.9935e-007
Heightened Def Con from 1.9935e-007 ++++++++to 2.0235e-007
Heightened Def Con from 2.0235e-007 +++++++++to 2.0635e-007
Heightened Def Con from 2.0635e-007 +++++++++to 2.0935e-007
Heightened Def Con from 2.0935e-007 ++++++++to 2.1235e-007
Heightened Def Con from 2.1235e-007 ++++++++to 2.1635e-007
Heightened Def Con from 2.1635e-007 ++++++++to 2.1835e-007
Heightened Def Con from 2.1835e-007 ++++++++to 2.2135e-007
Heightened Def Con from 2.2135e-007 ++to 2.22475e-007
Heightened Def Con from 2.22475e-007 ++++++++to 2.25475e-007
Heightened Def Con from 2.25475e-007 +++++++to 2.27475e-007
Heightened Def Con from 2.27475e-007 +++++to 2.28475e-007
Heightened Def Con from 2.28475e-007 +to 2.29475e-007
Heightened Def Con from 2.29475e-007 +to 2.30475e-007
Heightened Def Con from 2.30475e-007 to 2.31475e-007
Heightened Def Con from 2.31475e-007 +++++++to 2.32475e-007
Heightened Def Con from 2.32475e-007 to 2.33475e-007
Heightened Def Con from 2.33475e-007 +++++++to 2.34475e-007
Heightened Def Con from 2.34475e-007 ++++++++to 2.35475e-007
Heightened Def Con from 2.35475e-007 ++++to 2.36475e-007
Heightened Def Con from 2.36475e-007 ++to 2.37475e-007
Heightened Def Con from 2.37475e-007 +++to 2.38475e-007
Heightened Def Con from 2.39407e-007 ++++++++to 2.40407e-007
Heightened Def Con from 2.40407e-007 ++++to 2.41407e-007
Heightened Def Con from 2.41407e-007 +to 2.42407e-007
Heightened Def Con from 2.42407e-007 +to 2.43407e-007
Heightened Def Con from 2.43407e-007 ++to 2.43532e-007
Heightened Def Con from 2.43532e-007 ++++to 2.44532e-007
Heightened Def Con from 2.44532e-007 +++++to 2.45532e-007
Heightened Def Con from 2.45532e-007 ++to 2.46532e-007
Heightened Def Con from 2.46532e-007 +to 2.47532e-007
Heightened Def Con from 2.47532e-007 to 2.48532e-007
Heightened Def Con from 2.48532e-007 +++++++++to 2.49532e-007
Heightened Def Con from 2.50511e-007 ++to 2.51511e-007
Heightened Def Con from 2.51511e-007 +to 2.52511e-007
Heightened Def Con from 2.52511e-007 +to 2.53511e-007
Heightened Def Con from 2.53511e-007 ++++to 2.54511e-007
Heightened Def Con from 2.55485e-007 +++++++to 2.56485e-007
Heightened Def Con from 2.56485e-007 ++++++++to 2.57485e-007
Heightened Def Con from 2.58475e-007 to 2.59475e-007
Heightened Def Con from 2.59475e-007 +++to 2.60475e-007
Heightened Def Con from 2.61464e-007 ++to 2.62464e-007
Heightened Def Con from 2.62464e-007 +to 2.63464e-007
Heightened Def Con from 2.63464e-007 +++++to 2.64464e-007
Heightened Def Con from 2.64464e-007 to 2.65464e-007
Heightened Def Con from 2.65464e-007 +to 2.66464e-007
Heightened Def Con from 2.66464e-007 +++++++to 2.66589e-007
Heightened Def Con from 2.66589e-007 +++to 2.67589e-007
Heightened Def Con from 2.67589e-007 +to 2.68589e-007
Heightened Def Con from 2.68589e-007 ++++++to 2.69589e-007
Heightened Def Con from 2.69589e-007 +++to 2.70589e-007
Heightened Def Con from 2.70589e-007 ++to 2.71589e-007
Heightened Def Con from 2.71589e-007 +++to 2.72589e-007
Heightened Def Con from 2.72589e-007 ++to 2.72589e-007
Heightened Def Con from 2.72589e-007 +++++to 2.73589e-007
Heightened Def Con from 2.76063e-007 ++++to 2.77063e-007
Heightened Def Con from 2.77063e-007 +++++++++to 2.78063e-007
Heightened Def Con from 2.78063e-007 to 2.79063e-007
Heightened Def Con from 2.79063e-007 ++++to 2.80063e-007
Heightened Def Con from 2.80063e-007 ++to 2.81063e-007
Heightened Def Con from 2.81063e-007 +++++++++to 2.82063e-007
Heightened Def Con from 2.82063e-007 +to 2.83063e-007
Heightened Def Con from 2.83063e-007 +to 2.84063e-007
Heightened Def Con from 2.84063e-007 ++to 2.85063e-007
Heightened Def Con from 2.85063e-007 ++++to 2.85188e-007
Heightened Def Con from 2.85188e-007 +++++to 2.86188e-007
Heightened Def Con from 2.86188e-007 ++to 2.86204e-007
Heightened Def Con from 2.86204e-007 +to 2.87204e-007
Heightened Def Con from 2.87204e-007 to 2.88204e-007
Heightened Def Con from 2.88204e-007 +++++++to 2.89204e-007
Heightened Def Con from 2.89204e-007 ++++++++to 2.90204e-007
Heightened Def Con from 2.90204e-007 +to 2.91204e-007
Heightened Def Con from 2.91204e-007 ++++++++to 2.92204e-007
Heightened Def Con from 2.92204e-007 ++to 2.93204e-007
Heightened Def Con from 2.93204e-007 +++++++to 2.94204e-007
Heightened Def Con from 2.95279e-007 to 2.96279e-007
Heightened Def Con from 2.96279e-007 +++to 2.97279e-007
Heightened Def Con from 2.97279e-007 +to 2.98279e-007
Heightened Def Con from 2.98279e-007 ++to 2.98295e-007
Heightened Def Con from 2.98295e-007 ++++++to 2.99295e-007
Heightened Def Con from 2.99295e-007 to 3.00295e-007
Heightened Def Con from 3.00295e-007 +++++++++to 3.01295e-007
Heightened Def Con from 3.02398e-007 +++++to 3.03398e-007
Heightened Def Con from 3.03398e-007 ++++to 3.04398e-007
Heightened Def Con from 3.04398e-007 ++++to 3.05398e-007
Heightened Def Con from 3.05398e-007 +to 3.05523e-007
Heightened Def Con from 3.05523e-007 to 3.05648e-007
Heightened Def Con from 3.05648e-007 +to 3.06648e-007
Heightened Def Con from 3.06648e-007 to 3.07648e-007
Heightened Def Con from 3.07648e-007 ++to 3.07773e-007
Heightened Def Con from 3.07773e-007 +++to 3.08773e-007
Heightened Def Con from 3.08773e-007 to 3.09773e-007
Heightened Def Con from 3.09773e-007 +to 3.10773e-007
Heightened Def Con from 3.10773e-007 +++++++to 3.11773e-007
Heightened Def Con from 3.11773e-007 ++to 3.12773e-007
Heightened Def Con from 3.12773e-007 +++++to 3.13773e-007
Heightened Def Con from 3.14894e-007 +++to 3.15894e-007
Heightened Def Con from 3.15894e-007 +++to 3.16894e-007
Heightened Def Con from 3.16894e-007 +++++to 3.17894e-007
Heightened Def Con from 3.17894e-007 ++++++to 3.18894e-007
Heightened Def Con from 3.18894e-007 +to 3.19894e-007
Heightened Def Con from 3.21029e-007 +++++++to 3.22029e-007
Heightened Def Con from 3.22029e-007 +to 3.23029e-007
Heightened Def Con from 3.23029e-007 +++++to 3.24029e-007
Heightened Def Con from 3.24029e-007 to 3.24154e-007
Heightened Def Con from 3.24154e-007 ++++++++to 3.25154e-007
Heightened Def Con from 3.25154e-007 +++++to 3.26154e-007
Heightened Def Con from 3.26154e-007 +++++to 3.26279e-007
Heightened Def Con from 3.26279e-007 to 3.28279e-007
Heightened Def Con from 3.28279e-007 ++++++to 3.29279e-007
Heightened Def Con from 3.29279e-007 +++++++++to 3.30279e-007
Heightened Def Con from 3.30279e-007 +++++to 3.31279e-007
Heightened Def Con from 3.31279e-007 ++to 3.31294e-007
Heightened Def Con from 3.31294e-007 +to 3.32294e-007
Heightened Def Con from 3.33458e-007 ++++++to 3.34458e-007
Heightened Def Con from 3.34458e-007 +to 3.35458e-007
Heightened Def Con from 3.35458e-007 ++++++++to 3.36458e-007
Heightened Def Con from 3.36458e-007 ++to 3.37458e-007
Heightened Def Con from 3.37458e-007 ++++to 3.38458e-007
Heightened Def Con from 3.38458e-007 ++++++++to 3.39458e-007
Heightened Def Con from 3.39458e-007 ++to 3.40458e-007
Heightened Def Con from 3.40458e-007 ++++to 3.41458e-007
Heightened Def Con from 3.41458e-007 ++++++++to 3.42458e-007
Heightened Def Con from 3.42458e-007 ++++++to 3.43458e-007
Heightened Def Con from 3.43458e-007 ++++++to 3.43583e-007
Heightened Def Con from 3.43583e-007 +++++to 3.44583e-007
Heightened Def Con from 3.44583e-007 +++++to 3.45583e-007
Heightened Def Con from 3.45583e-007 +++++++to 3.46583e-007
Heightened Def Con from 3.46583e-007 ++to 3.47583e-007
Heightened Def Con from 3.48784e-007 ++++++to 3.49784e-007
Heightened Def Con from 3.49784e-007 ++++to 3.50784e-007
Heightened Def Con from 3.50784e-007 ++++++++to 3.51784e-007
Heightened Def Con from 3.51784e-007 +++++++++to 3.52784e-007
Heightened Def Con from 3.54009e-007 +++++++to 3.55009e-007
Heightened Def Con from 3.55009e-007 to 3.56009e-007
Heightened Def Con from 3.56009e-007 ++to 3.57009e-007
Heightened Def Con from 3.58231e-007 +++++to 3.59231e-007
Heightened Def Con from 3.59231e-007 ++++++to 3.60231e-007
Heightened Def Con from 3.60231e-007 to 3.61231e-007
Heightened Def Con from 3.61231e-007 to 3.62231e-007
Heightened Def Con from 3.62231e-007 +++++++++to 3.63231e-007
Heightened Def Con from 3.63231e-007 ++++++to 3.64231e-007
Heightened Def Con from 3.64231e-007 +++++to 3.65231e-007
Heightened Def Con from 3.65231e-007 ++++++++to 3.66231e-007
Heightened Def Con from 3.66231e-007 ++to 3.67231e-007
Heightened Def Con from 3.67372e-007 +++++++to 3.68372e-007
Heightened Def Con from 3.68372e-007 +to 3.69372e-007
Heightened Def Con from 3.69372e-007 +to 3.70372e-007
Heightened Def Con from 3.70372e-007 +++++to 3.71372e-007
Heightened Def Con from 3.71372e-007 +to 3.72372e-007
Heightened Def Con from 3.72372e-007 to 3.73372e-007
Heightened Def Con from 3.73372e-007 +++++++to 3.74372e-007
Heightened Def Con from 3.74372e-007 ++to 3.75372e-007
Heightened Def Con from 3.75372e-007 to 3.76372e-007
Heightened Def Con from 3.76372e-007 ++to 3.77372e-007
Heightened Def Con from 3.77372e-007 +to 3.78372e-007
Heightened Def Con from 3.78372e-007 ++to 3.78497e-007
Heightened Def Con from 3.78497e-007 ++++to 3.79497e-007
Heightened Def Con from 3.79497e-007 +++++to 3.80497e-007
Heightened Def Con from 3.81506e-007 ++to 3.82506e-007
Heightened Def Con from 3.8263e-007 ++++to 3.8363e-007
Heightened Def Con from 3.8363e-007 +++++++to 3.8463e-007
Heightened Def Con from 3.8463e-007 +to 3.8563e-007
Heightened Def Con from 3.8563e-007 to 3.85755e-007
Heightened Def Con from 3.85755e-007 +to 3.86755e-007
Heightened Def Con from 3.86755e-007 ++++to 3.87755e-007
Heightened Def Con from 3.87755e-007 ++++++++to 3.88755e-007
Heightened Def Con from 3.88755e-007 +to 3.89755e-007
Heightened Def Con from 3.90675e-007 +++++++to 3.91675e-007
Heightened Def Con from 3.91675e-007 +++++to 3.918e-007
Heightened Def Con from 3.918e-007 ++++++to 3.93925e-007
Heightened Def Con from 3.93925e-007 +++++++to 3.96925e-007
Heightened Def Con from 4.00552e-007 +++++to 4.02552e-007
Heightened Def Con from 4.02552e-007 +++++++to 4.06552e-007
Heightened Def Con from 4.06552e-007 ++to 4.08552e-007
Heightened Def Con from 4.08552e-007 ++++++++++to 4.12552e-007
Heightened Def Con from 4.12552e-007 +++++++to 4.15552e-007
Heightened Def Con from 4.15552e-007 +++++++to 4.17552e-007
Heightened Def Con from 4.17552e-007 +++++++++to 4.21677e-007
Heightened Def Con from 4.21677e-007 ++++++++++to 4.26677e-007
Heightened Def Con from 4.26677e-007 +to 4.26802e-007
Heightened Def Con from 4.26802e-007 ++++++++++to 4.34802e-007
Heightened Def Con from 4.34802e-007 +++++to 4.35927e-007
Heightened Def Con from 4.35927e-007 ++++++++++to 4.40927e-007
Heightened Def Con from 4.40927e-007 ++++++to 4.43927e-007
Heightened Def Con from 4.43927e-007 +++++++++to 4.49927e-007
Heightened Def Con from 4.49927e-007 ++++++++to 4.54927e-007
Heightened Def Con from 4.54927e-007 to 4.54943e-007
Heightened Def Con from 4.54943e-007 ++++++++to 4.58943e-007
Heightened Def Con from 4.58943e-007 ++++++++to 4.63943e-007
Heightened Def Con from 4.64193e-007 +++++++++to 4.69193e-007
Heightened Def Con from 4.69193e-007 ++++++++++to 4.76193e-007
Heightened Def Con from 4.76193e-007 +++++++++++to 4.83193e-007
Heightened Def Con from 8.0382e-007 ++++to 8.0482e-007
Heightened Def Con from 8.05847e-007 +++++++to 8.06847e-007
Heightened Def Con from 8.06847e-007 ++++++++to 8.07847e-007
Heightened Def Con from 8.07847e-007 to 8.07972e-007
Heightened Def Con from 8.07972e-007 +++++to 8.08972e-007
Heightened Def Con from 8.08972e-007 ++++++++to 8.09972e-007
Heightened Def Con from 8.09972e-007 +to 8.10972e-007
Heightened Def Con from 8.10972e-007 ++++to 8.10974e-007
Heightened Def Con from 8.10974e-007 ++++to 8.10974e-007
Heightened Def Con from 8.10974e-007 ++to 8.12099e-007
Heightened Def Con from 8.12099e-007 ++++to 8.13099e-007
Heightened Def Con from 8.13099e-007 +++to 8.15099e-007
Heightened Def Con from 8.15099e-007 +++++to 8.15224e-007
Heightened Def Con from 8.15224e-007 +++++++++to 8.20224e-007
Heightened Def Con from 8.20224e-007 ++++++++to 8.24224e-007
Heightened Def Con from 8.26224e-007 +to 8.2724e-007
Heightened Def Con from 8.2724e-007 ++++++++to 8.3324e-007
Heightened Def Con from 8.3324e-007 +++++to 8.3624e-007
Heightened Def Con from 8.3624e-007 +++++++to 8.4124e-007
Heightened Def Con from 8.4124e-007 +++to 8.4624e-007
Heightened Def Con from 8.4624e-007 ++to 8.4624e-007
Heightened Def Con from 8.4624e-007 ++++++++to 8.5324e-007
Heightened Def Con from 8.5324e-007 ++++++++to 8.5924e-007
Heightened Def Con from 8.6124e-007 ++++++to 8.6324e-007
Heightened Def Con from 8.6324e-007 +++++to 8.6424e-007
Heightened Def Con from 8.6424e-007 ++to 8.6524e-007
Heightened Def Con from 8.6524e-007 +++++to 8.6624e-007
Heightened Def Con from 8.6624e-007 ++to 8.6724e-007
Heightened Def Con from 8.6724e-007 +++++to 8.6824e-007
Heightened Def Con from 8.6824e-007 +++++to 8.6924e-007
Heightened Def Con from 8.6924e-007 ++++++++to 8.7024e-007
Heightened Def Con from 8.7024e-007 ++to 8.7124e-007
Heightened Def Con from 8.7124e-007 +to 8.7224e-007
Heightened Def Con from 8.7224e-007 +++++to 8.72365e-007
Heightened Def Con from 8.72365e-007 +++to 8.74365e-007
Heightened Def Con from 8.74365e-007 +to 8.75365e-007
Heightened Def Con from 8.75556e-007 ++to 8.77556e-007
Heightened Def Con from 8.77556e-007 +++to 8.78556e-007
Heightened Def Con from 8.78556e-007 +to 8.79556e-007
Heightened Def Con from 8.79556e-007 ++to 8.80556e-007
Heightened Def Con from 8.80556e-007 ++++to 8.81556e-007
Heightened Def Con from 8.82572e-007 ++++to 8.83572e-007
Heightened Def Con from 8.84497e-007 ++++++++to 8.87497e-007
Heightened Def Con from 8.87497e-007 ++++++++to 8.91497e-007
Heightened Def Con from 8.91497e-007 ++++++++to 8.95497e-007
Heightened Def Con from 8.95497e-007 ++++++to 9.00497e-007
Heightened Def Con from 9.00497e-007 ++++++++to 9.04497e-007
Heightened Def Con from 9.06497e-007 ++++++++to 9.10497e-007
Heightened Def Con from 9.10497e-007 to 9.13497e-007
Heightened Def Con from 9.13497e-007 ++++++++to 9.18497e-007
Heightened Def Con from 9.18497e-007 +++++++to 9.22622e-007
Heightened Def Con from 9.22622e-007 +++++++++to 9.31622e-007
Heightened Def Con from 9.31622e-007 ++++++++++to 9.37622e-007
Heightened Def Con from 9.37622e-007 +++++++++to 9.42747e-007
Heightened Def Con from 9.42747e-007 ++++++++to 9.47747e-007
Heightened Def Con from 9.47747e-007 ++to 9.50747e-007
Heightened Def Con from 9.50747e-007 ++++++++to 9.53747e-007
Heightened Def Con from 9.53747e-007 ++++++++to 9.56747e-007
Heightened Def Con from 9.56747e-007 ++++++to 9.56872e-007
Heightened Def Con from 9.56872e-007 +++++++to 9.57872e-007
Heightened Def Con from 9.58783e-007 +++++to 9.59783e-007
Heightened Def Con from 9.59783e-007 to 9.60783e-007
Heightened Def Con from 9.61816e-007 +to 9.62816e-007
Heightened Def Con from 9.64013e-007 +to 9.65013e-007
Heightened Def Con from 9.65013e-007 ++++to 9.66013e-007
Heightened Def Con from 9.66013e-007 +++++to 9.67013e-007
Heightened Def Con from 9.67013e-007 ++to 9.68013e-007
Heightened Def Con from 9.68013e-007 ++++++++to 9.69013e-007
Heightened Def Con from 9.69013e-007 to 9.70013e-007
Heightened Def Con from 9.70013e-007 ++++++to 9.71013e-007
Heightened Def Con from 9.71013e-007 +to 9.72013e-007
Heightened Def Con from 9.72013e-007 +to 9.73013e-007
Heightened Def Con from 9.73013e-007 +++to 9.74013e-007
Heightened Def Con from 9.74013e-007 ++to 9.74138e-007
Heightened Def Con from 9.74138e-007 +++to 9.75138e-007
Heightened Def Con from 9.75138e-007 ++++to 9.76138e-007
Heightened Def Con from 9.76138e-007 +to 9.76263e-007
Heightened Def Con from 9.76263e-007 ++to 9.77263e-007
Heightened Def Con from 9.77263e-007 +++++to 9.78263e-007
Heightened Def Con from 9.78263e-007 +to 9.79263e-007
Heightened Def Con from 9.80729e-007 +++++++to 9.81729e-007
Heightened Def Con from 9.81729e-007 to 9.82729e-007
Heightened Def Con from 9.82729e-007 +++++++to 9.83729e-007
Heightened Def Con from 9.83729e-007 ++to 9.84729e-007
Heightened Def Con from 9.84729e-007 to 9.85729e-007
Heightened Def Con from 9.85729e-007 ++++++++to 9.86729e-007
Heightened Def Con from 9.86729e-007 +++++++to 9.87729e-007
Heightened Def Con from 9.87729e-007 to 9.87854e-007
Heightened Def Con from 9.87854e-007 ++++++++to 9.88854e-007
Heightened Def Con from 9.89871e-007 ++++++to 9.90871e-007
Heightened Def Con from 9.90871e-007 +++++to 9.91871e-007
Heightened Def Con from 9.91871e-007 to 9.92871e-007
Heightened Def Con from 9.92871e-007 +++++to 9.93871e-007
Heightened Def Con from 9.93871e-007 +to 9.95871e-007
Heightened Def Con from 9.95871e-007 +++++++to 9.99871e-007
Heightened Def Con from 9.99871e-007 ++++++to 1.001e-006
Heightened Def Con from 1.001e-006 to 1.003e-006
Heightened Def Con from 1.003e-006 +to 1.00512e-006
Heightened Def Con from 1.00512e-006 +++++++++to 1.00812e-006
Heightened Def Con from 1.01549e-006 ++++++++to 1.01949e-006
Heightened Def Con from 1.01949e-006 +++++to 1.0215e-006
Heightened Def Con from 1.0215e-006 ++++++++to 1.0235e-006
Heightened Def Con from 1.02442e-006 +++++++++to 1.02942e-006
Heightened Def Con from 1.03142e-006 to 1.03242e-006
Heightened Def Con from 1.03332e-006 +++++++to 1.03745e-006
Heightened Def Con from 1.03745e-006 ++++++++to 1.04145e-006
Heightened Def Con from 1.04345e-006 ++++to 1.04545e-006
Heightened Def Con from 1.04545e-006 ++++++++to 1.04845e-006
Heightened Def Con from 1.04845e-006 to 1.05045e-006
Heightened Def Con from 1.05045e-006 ++++++++to 1.05445e-006
Heightened Def Con from 1.05445e-006 ++++++++to 1.05745e-006
Heightened Def Con from 1.05745e-006 ++++to 1.05845e-006
Heightened Def Con from 1.05845e-006 ++++to 1.05945e-006
Heightened Def Con from 1.06048e-006 +++++++to 1.06148e-006
Heightened Def Con from 1.06148e-006 to 1.06248e-006
Heightened Def Con from 1.06248e-006 +++++to 1.06348e-006
Heightened Def Con from 1.06348e-006 ++++++++to 1.06448e-006
Heightened Def Con from 1.06448e-006 +++to 1.06548e-006
Heightened Def Con from 1.06548e-006 ++++++to 1.06648e-006
Heightened Def Con from 1.06844e-006 +to 1.06944e-006
Heightened Def Con from 1.06944e-006 ++++to 1.07044e-006
Heightened Def Con from 1.07241e-006 to 1.07341e-006
Heightened Def Con from 1.07341e-006 ++++++++to 1.07441e-006
Heightened Def Con from 1.07441e-006 +++++to 1.07541e-006
Heightened Def Con from 1.07541e-006 +++++to 1.07641e-006
Heightened Def Con from 1.07641e-006 ++to 1.07741e-006
Heightened Def Con from 1.07741e-006 ++++++to 1.07841e-006
Heightened Def Con from 1.07841e-006 +++++to 1.07941e-006
Heightened Def Con from 1.07941e-006 ++++++to 1.08041e-006
Heightened Def Con from 1.08041e-006 +to 1.08141e-006
Heightened Def Con from 1.0824e-006 ++++to 1.0834e-006
Heightened Def Con from 1.0834e-006 +++to 1.0844e-006
Heightened Def Con from 1.0844e-006 to 1.0854e-006
Heightened Def Con from 1.0854e-006 +to 1.0864e-006
Heightened Def Con from 1.0864e-006 to 1.0874e-006
Heightened Def Con from 1.0874e-006 +to 1.0884e-006
Heightened Def Con from 1.08932e-006 +to 1.09032e-006
Heightened Def Con from 1.09032e-006 +to 1.09132e-006
Heightened Def Con from 1.09222e-006 +to 1.09334e-006
Heightened Def Con from 1.09334e-006 +++++++to 1.09434e-006
Heightened Def Con from 1.09434e-006 +to 1.09534e-006
Heightened Def Con from 1.09534e-006 +to 1.09634e-006
Heightened Def Con from 1.09634e-006 ++++to 1.09734e-006
Heightened Def Con from 1.09734e-006 +to 1.09834e-006
Heightened Def Con from 1.09834e-006 ++++++to 1.09934e-006
Heightened Def Con from 1.09934e-006 to 1.10034e-006
Heightened Def Con from 1.10126e-006 ++to 1.10139e-006
Heightened Def Con from 1.10139e-006 ++++++to 1.10239e-006
Heightened Def Con from 1.10239e-006 to 1.10339e-006
Heightened Def Con from 1.10339e-006 ++++++to 1.10439e-006
Heightened Def Con from 1.10439e-006 +to 1.10539e-006
Heightened Def Con from 1.10539e-006 ++++++to 1.10639e-006
Heightened Def Con from 1.10639e-006 ++to 1.10739e-006
Heightened Def Con from 1.10739e-006 ++++++++to 1.10839e-006
Heightened Def Con from 1.10839e-006 +++++to 1.10939e-006
Heightened Def Con from 1.10939e-006 +++++++to 1.11039e-006
Heightened Def Con from 1.11039e-006 to 1.11139e-006
Heightened Def Con from 1.11139e-006 +++to 1.11239e-006
Heightened Def Con from 1.11239e-006 ++to 1.11339e-006
Heightened Def Con from 1.11442e-006 ++++++to 1.11454e-006
Heightened Def Con from 1.11454e-006 ++++to 1.11654e-006
Heightened Def Con from 1.11761e-006 to 1.11861e-006
Heightened Def Con from 1.11861e-006 to 1.11961e-006
Heightened Def Con from 1.11961e-006 to 1.12061e-006
Heightened Def Con from 1.12061e-006 to 1.12161e-006
Heightened Def Con from 1.12161e-006 to 1.12261e-006
Heightened Def Con from 1.12261e-006 +to 1.12361e-006
Heightened Def Con from 1.12361e-006 +to 1.12461e-006
Heightened Def Con from 1.12461e-006 +++to 1.12561e-006
Heightened Def Con from 1.12561e-006 +to 1.12661e-006
Heightened Def Con from 1.12661e-006 ++++++++to 1.12761e-006
Heightened Def Con from 1.12761e-006 +to 1.12861e-006
Heightened Def Con from 1.12861e-006 to 1.12961e-006
Heightened Def Con from 1.12961e-006 ++++to 1.13061e-006
Heightened Def Con from 1.13061e-006 +to 1.13161e-006
Heightened Def Con from 1.13161e-006 +to 1.13261e-006
Heightened Def Con from 1.13261e-006 ++++++++to 1.13361e-006
Heightened Def Con from 1.13361e-006 ++to 1.13461e-006
Heightened Def Con from 1.13461e-006 ++to 1.13561e-006
Heightened Def Con from 1.13561e-006 ++++++to 1.13661e-006
Heightened Def Con from 1.13661e-006 +++++++to 1.13674e-006
Heightened Def Con from 1.13674e-006 +++++++to 1.13774e-006
Heightened Def Con from 1.13774e-006 +to 1.13874e-006
Heightened Def Con from 1.13874e-006 +++to 1.13974e-006
Heightened Def Con from 1.13974e-006 +++++to 1.14074e-006
Heightened Def Con from 1.14244e-006 to 1.14256e-006
Heightened Def Con from 1.14256e-006 +to 1.14456e-006
Heightened Def Con from 1.14644e-006 ++++to 1.14744e-006
Heightened Def Con from 1.14744e-006 ++to 1.14844e-006
Heightened Def Con from 1.14844e-006 ++++to 1.14856e-006
Heightened Def Con from 1.14856e-006 +to 1.14956e-006
Heightened Def Con from 1.14956e-006 to 1.15056e-006
Heightened Def Con from 1.15056e-006 ++++++++to 1.15156e-006
Heightened Def Con from 1.15156e-006 +++++to 1.15256e-006
Heightened Def Con from 1.15456e-006 +to 1.15556e-006
Heightened Def Con from 1.15556e-006 +++to 1.15656e-006
Heightened Def Con from 1.16179e-006 to 1.16279e-006
Heightened Def Con from 1.16279e-006 +to 1.16379e-006
Heightened Def Con from 1.16379e-006 ++to 1.16479e-006
Heightened Def Con from 1.16679e-006 +to 1.16779e-006
Heightened Def Con from 1.16779e-006 ++++++to 1.16879e-006
Heightened Def Con from 1.16879e-006 to 1.16979e-006
Heightened Def Con from 1.16979e-006 ++to 1.17079e-006
Heightened Def Con from 1.17079e-006 ++++to 1.17179e-006
Heightened Def Con from 1.17379e-006 +++to 1.17392e-006
Heightened Def Con from 1.17392e-006 +++++to 1.17492e-006
Heightened Def Con from 1.17492e-006 ++to 1.17504e-006
Heightened Def Con from 1.17504e-006 ++++to 1.17604e-006
Heightened Def Con from 1.17804e-006 +++++++to 1.17904e-006
Heightened Def Con from 1.17904e-006 ++to 1.18004e-006
Heightened Def Con from 1.18004e-006 to 1.18104e-006
Heightened Def Con from 1.18567e-006 ++to 1.18667e-006
Heightened Def Con from 1.18667e-006 ++++++to 1.18767e-006
Heightened Def Con from 1.18767e-006 ++to 1.18867e-006
Heightened Def Con from 1.18867e-006 to 1.18967e-006
Heightened Def Con from 1.18967e-006 +++++to 1.18979e-006
Heightened Def Con from 1.18979e-006 ++++++to 1.19079e-006
Heightened Def Con from 1.19279e-006 ++++++++to 1.19379e-006
Heightened Def Con from 1.19379e-006 +++to 1.19479e-006
Heightened Def Con from 1.19479e-006 to 1.19579e-006
Heightened Def Con from 1.20044e-006 ++++to 1.20144e-006
Heightened Def Con from 1.2061e-006 +to 1.2071e-006
Heightened Def Con from 1.2071e-006 to 1.2081e-006
Heightened Def Con from 1.2081e-006 ++to 1.2091e-006
Heightened Def Con from 1.2091e-006 to 1.2101e-006
Heightened Def Con from 1.21544e-006 ++++to 1.21644e-006
Heightened Def Con from 1.21644e-006 +++to 1.21744e-006
Heightened Def Con from 1.21744e-006 ++++to 1.21844e-006
Heightened Def Con from 1.21844e-006 +to 1.21944e-006
Heightened Def Con from 1.21944e-006 to 1.22044e-006
Heightened Def Con from 1.22044e-006 ++++to 1.22144e-006
Heightened Def Con from 1.22344e-006 to 1.22444e-006
Heightened Def Con from 1.22914e-006 +++to 1.23014e-006
Heightened Def Con from 1.23014e-006 ++++to 1.23114e-006
Heightened Def Con from 1.23117e-006 to 1.23317e-006
Heightened Def Con from 1.23317e-006 +to 1.23417e-006
Heightened Def Con from 1.23417e-006 ++to 1.23517e-006
Heightened Def Con from 1.23517e-006 ++++to 1.23617e-006
Heightened Def Con from 1.23817e-006 ++to 1.23917e-006
Heightened Def Con from 1.23917e-006 +++++++to 1.24017e-006
Heightened Def Con from 1.24017e-006 ++++++to 1.24117e-006
Heightened Def Con from 1.24117e-006 to 1.24217e-006
Heightened Def Con from 1.24417e-006 to 1.24517e-006
Heightened Def Con from 1.24517e-006 +++++to 1.24617e-006
Heightened Def Con from 1.24617e-006 ++to 1.24717e-006
Heightened Def Con from 1.24717e-006 to 1.24817e-006
Heightened Def Con from 1.24817e-006 +++++++to 1.24917e-006
Heightened Def Con from 1.25117e-006 ++++++++to 1.25217e-006
Heightened Def Con from 1.25217e-006 to 1.25317e-006
Heightened Def Con from 1.25517e-006 +++to 1.25617e-006
Heightened Def Con from 1.25817e-006 +++++++to 1.25917e-006
Heightened Def Con from 1.25917e-006 +to 1.26017e-006
Heightened Def Con from 1.26017e-006 ++++to 1.26029e-006
Heightened Def Con from 1.26029e-006 ++to 1.26129e-006
Heightened Def Con from 1.26329e-006 +++to 1.26342e-006
Heightened Def Con from 1.26342e-006 +++to 1.26442e-006
Heightened Def Con from 1.26642e-006 +to 1.26654e-006
Heightened Def Con from 1.26654e-006 +++++to 1.26754e-006
Heightened Def Con from 1.26954e-006 +++to 1.27054e-006
Heightened Def Con from 1.27079e-006 +++to 1.27179e-006
Heightened Def Con from 1.27179e-006 ++++++to 1.27279e-006
Heightened Def Con from 1.27279e-006 +++to 1.27379e-006
Heightened Def Con from 1.27579e-006 to 1.27679e-006
Heightened Def Con from 1.27679e-006 to 1.27779e-006
Heightened Def Con from 1.27779e-006 ++to 1.27879e-006
Heightened Def Con from 1.27879e-006 ++++++++to 1.27979e-006
Heightened Def Con from 1.27979e-006 ++++++to 1.28079e-006
Heightened Def Con from 1.28279e-006 +++to 1.28379e-006
Heightened Def Con from 1.28379e-006 to 1.28479e-006
Heightened Def Con from 1.28679e-006 ++to 1.28779e-006
Heightened Def Con from 1.28854e-006 +++to 1.28954e-006
Heightened Def Con from 1.28954e-006 to 1.29054e-006
Heightened Def Con from 1.29054e-006 ++to 1.29154e-006
Heightened Def Con from 1.29154e-006 to 1.29254e-006
Heightened Def Con from 1.29454e-006 +++to 1.29554e-006
Heightened Def Con from 1.29554e-006 ++++++++to 1.29654e-006
Heightened Def Con from 1.29654e-006 to 1.29754e-006
Heightened Def Con from 1.29754e-006 ++to 1.29854e-006
Heightened Def Con from 1.30054e-006 to 1.30154e-006
Heightened Def Con from 1.30354e-006 +++++to 1.30454e-006
Heightened Def Con from 1.30454e-006 +to 1.30554e-006
Heightened Def Con from 1.30754e-006 to 1.30854e-006
Heightened Def Con from 1.30854e-006 +to 1.30954e-006
Heightened Def Con from 1.30954e-006 +++++to 1.31054e-006
Heightened Def Con from 1.31254e-006 +to 1.31354e-006
Heightened Def Con from 1.31354e-006 +++to 1.31454e-006
Heightened Def Con from 1.31654e-006 ++to 1.31754e-006
Heightened Def Con from 1.31779e-006 +++++to 1.31879e-006
Heightened Def Con from 1.31879e-006 +++++++to 1.31979e-006
Heightened Def Con from 1.31979e-006 ++++++to 1.32079e-006
Heightened Def Con from 1.32079e-006 ++++++++to 1.32179e-006
Heightened Def Con from 1.32179e-006 ++to 1.32279e-006
Heightened Def Con from 1.32279e-006 to 1.32292e-006
Heightened Def Con from 1.32292e-006 ++++to 1.32392e-006
Heightened Def Con from 1.32392e-006 +++++to 1.32492e-006
Heightened Def Con from 1.32492e-006 to 1.32592e-006
Heightened Def Con from 1.32592e-006 ++++to 1.32692e-006
Heightened Def Con from 1.32692e-006 +to 1.32792e-006
Heightened Def Con from 1.32792e-006 +++to 1.32892e-006
Heightened Def Con from 1.32892e-006 ++to 1.32992e-006
Heightened Def Con from 1.32992e-006 ++++++to 1.33092e-006
Heightened Def Con from 1.33092e-006 to 1.33192e-006
Heightened Def Con from 1.33192e-006 +++to 1.33292e-006
Heightened Def Con from 1.33492e-006 +to 1.33592e-006
Heightened Def Con from 1.33792e-006 +++to 1.33804e-006
Heightened Def Con from 1.33804e-006 ++++to 1.33904e-006
Heightened Def Con from 1.33904e-006 +++++++to 1.34004e-006
Heightened Def Con from 1.34004e-006 +++to 1.34104e-006
Heightened Def Con from 1.34104e-006 to 1.34204e-006
Heightened Def Con from 1.34404e-006 ++to 1.34504e-006
Heightened Def Con from 1.34504e-006 to 1.34604e-006
Heightened Def Con from 1.34841e-006 +++to 1.34941e-006
Heightened Def Con from 1.34941e-006 +to 1.35041e-006
Heightened Def Con from 1.35041e-006 ++++++++to 1.35141e-006
Heightened Def Con from 1.35141e-006 +to 1.35241e-006
Heightened Def Con from 1.35241e-006 to 1.35341e-006
Heightened Def Con from 1.35341e-006 +++++++to 1.35441e-006
Heightened Def Con from 1.35441e-006 ++to 1.35541e-006
Heightened Def Con from 1.35541e-006 +to 1.35641e-006
Heightened Def Con from 1.35641e-006 to 1.35741e-006
Heightened Def Con from 1.35741e-006 +to 1.35841e-006
Heightened Def Con from 1.35841e-006 +to 1.35853e-006
Heightened Def Con from 1.35853e-006 ++++to 1.35953e-006
Heightened Def Con from 1.35953e-006 to 1.36053e-006
Heightened Def Con from 1.36053e-006 +++to 1.36153e-006
Heightened Def Con from 1.36153e-006 ++to 1.36253e-006
Heightened Def Con from 1.36453e-006 +to 1.36553e-006
Heightened Def Con from 1.36553e-006 ++to 1.36653e-006
Heightened Def Con from 1.36853e-006 +to 1.36866e-006
Heightened Def Con from 1.36866e-006 to 1.36878e-006
Heightened Def Con from 1.36878e-006 +++++++to 1.36891e-006
Heightened Def Con from 1.36891e-006 +++++to 1.37091e-006
Heightened Def Con from 1.37091e-006 to 1.37191e-006
Heightened Def Con from 1.37391e-006 ++to 1.37403e-006
Heightened Def Con from 1.37428e-006 to 1.37528e-006
Heightened Def Con from 1.37648e-006 +++to 1.37748e-006
Heightened Def Con from 1.37748e-006 ++to 1.3776e-006
Heightened Def Con from 1.3776e-006 +to 1.3786e-006
Heightened Def Con from 1.3806e-006 +++++++to 1.3816e-006
Heightened Def Con from 1.3836e-006 +to 1.3846e-006
Heightened Def Con from 1.3846e-006 to 1.3856e-006
Heightened Def Con from 1.3856e-006 +++to 1.3866e-006
Heightened Def Con from 1.3886e-006 +++++to 1.3896e-006
Heightened Def Con from 1.3896e-006 +++++++to 1.3906e-006
Heightened Def Con from 1.3906e-006 +to 1.3916e-006
Heightened Def Con from 1.3936e-006 ++to 1.3946e-006
Heightened Def Con from 1.3946e-006 to 1.3956e-006
Heightened Def Con from 1.3956e-006 +++to 1.3966e-006
Heightened Def Con from 1.3986e-006 +to 1.39873e-006
Heightened Def Con from 1.39873e-006 ++++++to 1.39973e-006
Heightened Def Con from 1.40173e-006 to 1.40273e-006
Heightened Def Con from 1.40273e-006 ++++++to 1.40373e-006
Heightened Def Con from 1.40373e-006 ++++to 1.40385e-006
Heightened Def Con from 1.40385e-006 ++++++to 1.40398e-006
Heightened Def Con from 1.40398e-006 ++++to 1.40498e-006
Heightened Def Con from 1.40498e-006 ++++++++to 1.40598e-006
Heightened Def Con from 1.41096e-006 to 1.41196e-006
Heightened Def Con from 1.41196e-006 ++++++++to 1.41296e-006
Heightened Def Con from 1.41296e-006 +++++to 1.41396e-006
Heightened Def Con from 1.41396e-006 to 1.41496e-006
Heightened Def Con from 1.41496e-006 +++++to 1.41596e-006
Heightened Def Con from 1.41796e-006 to 1.41896e-006
Heightened Def Con from 1.42096e-006 +++++++to 1.42196e-006
Heightened Def Con from 1.42196e-006 ++++++++to 1.42296e-006
Heightened Def Con from 1.42296e-006 ++++++to 1.42396e-006
Heightened Def Con from 1.42396e-006 +to 1.42496e-006
Heightened Def Con from 1.42496e-006 ++to 1.42596e-006
Heightened Def Con from 1.42596e-006 +++to 1.42609e-006
Heightened Def Con from 1.42609e-006 +++++++to 1.42709e-006
Heightened Def Con from 1.42709e-006 +++to 1.42809e-006
Heightened Def Con from 1.43009e-006 ++++++to 1.43109e-006
Heightened Def Con from 1.43109e-006 ++++to 1.43209e-006
Heightened Def Con from 1.43209e-006 to 1.43309e-006
Heightened Def Con from 1.43309e-006 ++++to 1.43409e-006
Heightened Def Con from 1.43409e-006 to 1.43509e-006
Heightened Def Con from 1.43709e-006 +to 1.43809e-006
Heightened Def Con from 1.43809e-006 ++++++++to 1.43909e-006
Heightened Def Con from 1.43909e-006 to 1.44009e-006
Heightened Def Con from 1.44009e-006 +++++to 1.44109e-006
Heightened Def Con from 1.44109e-006 +to 1.44209e-006
Heightened Def Con from 1.44712e-006 ++to 1.44812e-006
Heightened Def Con from 1.44812e-006 ++++to 1.44912e-006
Heightened Def Con from 1.44937e-006 to 1.45037e-006
Heightened Def Con from 1.45037e-006 +to 1.45137e-006
Heightened Def Con from 1.45137e-006 ++++++to 1.45237e-006
Heightened Def Con from 1.45743e-006 ++to 1.45843e-006
Heightened Def Con from 1.45843e-006 ++++++to 1.45943e-006
Heightened Def Con from 1.45943e-006 ++to 1.46043e-006
Heightened Def Con from 1.46043e-006 ++++to 1.46055e-006
Heightened Def Con from 1.46055e-006 ++++++++to 1.46155e-006
Heightened Def Con from 1.46155e-006 ++to 1.46255e-006
Heightened Def Con from 1.46255e-006 +++++to 1.46355e-006
Heightened Def Con from 2.57769e-005 ++++++to 2.57779e-005
Heightened Def Con from 2.57779e-005 +++++++to 2.57789e-005
Heightened Def Con from 2.57789e-005 +++to 2.57799e-005
Heightened Def Con from 2.57799e-005 ++++++++to 2.57809e-005
Heightened Def Con from 2.57809e-005 +++++to 2.57819e-005
Heightened Def Con from 2.57819e-005 ++++++++to 2.57829e-005
Heightened Def Con from 2.57829e-005 to 2.57839e-005
Heightened Def Con from 2.57839e-005 ++to 2.57849e-005
Heightened Def Con from 2.57849e-005 ++++++to 2.57859e-005
Heightened Def Con from 2.57859e-005 to 2.57869e-005
Heightened Def Con from 2.5788e-005 ++++to 2.5789e-005
Heightened Def Con from 2.5789e-005 +++++++to 2.579e-005
Heightened Def Con from 2.579e-005 ++++to 2.5791e-005
Heightened Def Con from 2.5791e-005 +to 2.5792e-005
Heightened Def Con from 2.5792e-005 ++++to 2.57922e-005
Heightened Def Con from 2.57922e-005 +++to 2.57923e-005
Heightened Def Con from 2.57923e-005 ++++to 2.57943e-005
Heightened Def Con from 2.57943e-005 ++++to 2.57953e-005
Heightened Def Con from 2.57953e-005 to 2.57954e-005
Heightened Def Con from 2.57954e-005 +++to 2.57964e-005
Heightened Def Con from 2.57964e-005 +to 2.57974e-005
Heightened Def Con from 2.57974e-005 to 2.57984e-005
Heightened Def Con from 2.57984e-005 +++to 2.57994e-005
Heightened Def Con from 2.57994e-005 ++to 2.58004e-005
Heightened Def Con from 2.58004e-005 to 2.58014e-005
Heightened Def Con from 2.58014e-005 +++to 2.58024e-005
Heightened Def Con from 2.58024e-005 +++++to 2.58034e-005
Heightened Def Con from 2.58034e-005 to 2.58044e-005
Heightened Def Con from 2.58044e-005 +to 2.58054e-005
Heightened Def Con from 2.58054e-005 ++++++++to 2.58064e-005
Heightened Def Con from 2.58064e-005 +++++++to 2.58074e-005
Heightened Def Con from 2.58074e-005 to 2.58084e-005
Heightened Def Con from 2.58084e-005 ++++to 2.58094e-005
Heightened Def Con from 2.58094e-005 +++++++to 2.58104e-005
Heightened Def Con from 2.58104e-005 +++to 2.58114e-005
Heightened Def Con from 2.58114e-005 +to 2.58124e-005
Heightened Def Con from 2.58124e-005 ++++++to 2.58134e-005
Heightened Def Con from 2.58134e-005 ++++++to 2.58144e-005
Heightened Def Con from 2.58144e-005 ++++++++to 2.58154e-005
Heightened Def Con from 2.58154e-005 ++++++++to 2.58164e-005
Heightened Def Con from 2.58164e-005 +++++++++to 2.58174e-005
Heightened Def Con from 2.58174e-005 ++++to 2.58175e-005
Heightened Def Con from 2.58175e-005 +++++++++to 2.58185e-005
Heightened Def Con from 2.58185e-005 ++++++to 2.58195e-005
Heightened Def Con from 2.58195e-005 to 2.58196e-005
Heightened Def Con from 2.58196e-005 +to 2.58206e-005
Heightened Def Con from 2.58206e-005 +to 2.58216e-005
Heightened Def Con from 2.58216e-005 ++to 2.58226e-005
Heightened Def Con from 2.58226e-005 +++++++to 2.58236e-005
Heightened Def Con from 2.58236e-005 ++++++++to 2.58246e-005
Heightened Def Con from 2.58246e-005 +++++++++to 2.58256e-005
Heightened Def Con from 2.58256e-005 +++to 2.58266e-005
Heightened Def Con from 2.58266e-005 +++++to 2.58276e-005
Heightened Def Con from 2.58285e-005 ++++++to 2.58295e-005
Heightened Def Con from 2.58295e-005 ++++++++to 2.58305e-005
Heightened Def Con from 2.58315e-005 +to 2.58325e-005
Heightened Def Con from 2.58325e-005 ++++++to 2.58335e-005
Heightened Def Con from 2.58335e-005 to 2.58336e-005
Heightened Def Con from 2.58336e-005 +to 2.58338e-005
Heightened Def Con from 2.58338e-005 ++++++++to 2.58348e-005
Heightened Def Con from 2.58348e-005 ++++to 2.58358e-005
Heightened Def Con from 2.58368e-005 ++++++++to 2.58378e-005
Heightened Def Con from 2.58378e-005 ++++to 2.58388e-005
Heightened Def Con from 2.58388e-005 ++++++++to 2.58398e-005
Heightened Def Con from 2.58398e-005 +to 2.58408e-005
Heightened Def Con from 2.58408e-005 ++++++++to 2.58418e-005
Heightened Def Con from 2.58418e-005 ++++++++to 2.58428e-005
Heightened Def Con from 2.58428e-005 ++++++to 2.58438e-005
Heightened Def Con from 2.58438e-005 ++++++++to 2.58448e-005
Heightened Def Con from 2.58448e-005 ++++++to 2.58458e-005
Heightened Def Con from 2.58458e-005 ++++++to 2.58468e-005
Heightened Def Con from 2.58468e-005 to 2.58478e-005
Heightened Def Con from 2.58478e-005 ++++++to 2.58488e-005
Heightened Def Con from 2.58488e-005 ++++++++to 2.58498e-005
Heightened Def Con from 2.58508e-005 ++++++++to 2.58518e-005
Heightened Def Con from 2.58518e-005 +to 2.58528e-005
Heightened Def Con from 2.58528e-005 ++++++++to 2.58538e-005
Heightened Def Con from 2.58538e-005 ++++to 2.58548e-005
Heightened Def Con from 2.58548e-005 ++++++++to 2.58558e-005
Heightened Def Con from 2.58558e-005 ++++to 2.58568e-005
Heightened Def Con from 2.58568e-005 ++++++++to 2.58598e-005
Heightened Def Con from 2.58598e-005 ++++++++to 2.58638e-005
Heightened Def Con from 2.58638e-005 ++++++++to 2.58708e-005
Heightened Def Con from 2.58708e-005 +++++++to 2.58709e-005
Heightened Def Con from 2.58709e-005 ++++to 2.58709e-005
Heightened Def Con from 2.58709e-005 +++++++++to 2.58769e-005
Heightened Def Con from 2.58769e-005 +++++to 2.58771e-005
Heightened Def Con from 2.58771e-005 ++++++++to 2.58821e-005
Heightened Def Con from 2.58821e-005 +++++++++to 2.58891e-005
Heightened Def Con from 2.58891e-005 +++++++++to 2.58931e-005
Heightened Def Con from 2.58931e-005 ++++++++to 2.58981e-005
Heightened Def Con from 2.58981e-005 ++++++++to 2.59031e-005
Heightened Def Con from 2.59031e-005 ++++++++to 2.59091e-005
Heightened Def Con from 2.59091e-005 +++++++to 2.59131e-005
Heightened Def Con from 2.59131e-005 to 2.59132e-005
Heightened Def Con from 2.59132e-005 +++++++to 2.59142e-005
Heightened Def Con from 2.59142e-005 ++to 2.59152e-005
Heightened Def Con from 2.59152e-005 ++++++to 2.59153e-005
Heightened Def Con from 2.59153e-005 +to 2.59163e-005
Heightened Def Con from 2.59163e-005 ++++++to 2.59163e-005
Heightened Def Con from 2.59163e-005 +++++++to 2.59173e-005
Heightened Def Con from 2.59173e-005 ++to 2.59183e-005
Heightened Def Con from 2.59183e-005 ++++++to 2.59193e-005
Heightened Def Con from 2.59193e-005 to 2.59203e-005
Heightened Def Con from 2.59203e-005 +++to 2.59213e-005
Heightened Def Con from 2.59213e-005 +++++to 2.59223e-005
Heightened Def Con from 2.59223e-005 +++++++to 2.59233e-005
Heightened Def Con from 2.59233e-005 +++++++to 2.59243e-005
Heightened Def Con from 2.59243e-005 +++++++to 2.59253e-005
Heightened Def Con from 2.5927e-005 +++to 2.5928e-005
Heightened Def Con from 2.5928e-005 +++++++to 2.5929e-005
Heightened Def Con from 2.5929e-005 ++++to 2.593e-005
Heightened Def Con from 2.593e-005 ++to 2.59302e-005
Heightened Def Con from 2.59302e-005 ++to 2.59303e-005
Heightened Def Con from 2.59303e-005 +++to 2.59313e-005
Heightened Def Con from 2.59313e-005 to 2.59323e-005
Heightened Def Con from 2.59323e-005 ++++++to 2.59333e-005
Heightened Def Con from 2.59333e-005 ++++++++to 2.59363e-005
Heightened Def Con from 2.59363e-005 ++++++++to 2.59393e-005
Heightened Def Con from 2.59393e-005 ++++++++to 2.59433e-005
Heightened Def Con from 2.59433e-005 ++++++++to 2.59453e-005
Heightened Def Con from 2.59453e-005 +++++++++to 2.59503e-005
Heightened Def Con from 2.59503e-005 ++++++++to 2.59533e-005
Heightened Def Con from 2.59533e-005 +++++++to 2.59574e-005
Heightened Def Con from 2.59574e-005 ++++++++to 2.59604e-005
Heightened Def Con from 2.59604e-005 ++++++++to 2.59644e-005
Heightened Def Con from 2.59644e-005 +++++++to 2.59674e-005
Heightened Def Con from 2.59694e-005 ++++++++to 2.59724e-005
Heightened Def Con from 2.59724e-005 +++++++to 2.59754e-005
Heightened Def Con from 2.59754e-005 ++++++++to 2.59784e-005
Heightened Def Con from 2.59784e-005 +++++++to 2.59814e-005
Heightened Def Con from 2.59814e-005 ++++++++to 2.59844e-005
Heightened Def Con from 2.59844e-005 +++++++++to 2.59884e-005
Heightened Def Con from 2.59884e-005 ++++++++to 2.59934e-005
Heightened Def Con from 2.59934e-005 +++++++to 2.59974e-005
Heightened Def Con from 2.59974e-005 +++++++to 2.59975e-005
Heightened Def Con from 2.59975e-005 ++++++++to 2.60005e-005
Heightened Def Con from 2.60005e-005 ++++++to 2.60065e-005
Heightened Def Con from 2.60065e-005 +++to 2.60067e-005
Heightened Def Con from 2.60067e-005 ++to 2.60068e-005
Heightened Def Con from 2.60068e-005 ++to 2.60069e-005
Heightened Def Con from 2.60069e-005 ++++++++to 2.60079e-005
Heightened Def Con from 2.60079e-005 +++to 2.60089e-005
Heightened Def Con from 2.60089e-005 ++++++to 2.60099e-005
Heightened Def Con from 2.60099e-005 to 2.60109e-005
Heightened Def Con from 2.60109e-005 +++++++to 2.60119e-005
Heightened Def Con from 2.60119e-005 ++++to 2.60129e-005
Heightened Def Con from 2.60129e-005 ++++++to 2.60139e-005
Heightened Def Con from 2.60139e-005 ++++++to 2.60149e-005
Heightened Def Con from 2.60149e-005 ++to 2.60159e-005
Heightened Def Con from 2.60159e-005 ++++++++to 2.60169e-005
Heightened Def Con from 2.60169e-005 ++++to 2.60179e-005
Heightened Def Con from 2.60179e-005 ++++++to 2.60189e-005
Heightened Def Con from 2.60189e-005 ++++to 2.60199e-005
Heightened Def Con from 2.60199e-005 ++++++to 2.60209e-005
Heightened Def Con from 2.60209e-005 ++to 2.60219e-005
Heightened Def Con from 2.60219e-005 ++++++++to 2.60229e-005
Heightened Def Con from 2.60229e-005 ++++++++to 2.60239e-005
Heightened Def Con from 2.60239e-005 ++++++to 2.6024e-005
Heightened Def Con from 2.6024e-005 +++++to 2.6025e-005
Heightened Def Con from 2.6025e-005 +++++++to 2.6026e-005
Heightened Def Con from 2.60263e-005 +++++++to 2.60273e-005
Heightened Def Con from 2.60273e-005 +++++to 2.60283e-005
Heightened Def Con from 2.60283e-005 +++++++to 2.60293e-005
Heightened Def Con from 2.60293e-005 ++++++++to 2.60303e-005
Heightened Def Con from 2.60303e-005 ++++++++to 2.60313e-005
Heightened Def Con from 2.60313e-005 ++to 2.60323e-005
Heightened Def Con from 2.60323e-005 ++++to 2.60333e-005
Heightened Def Con from 2.60345e-005 ++to 2.60346e-005
Heightened Def Con from 2.60346e-005 ++++++++to 2.60356e-005
Heightened Def Con from 2.60356e-005 to 2.60357e-005
Heightened Def Con from 2.60357e-005 ++++++++to 2.60367e-005
Heightened Def Con from 2.60367e-005 +++++to 2.60377e-005
Heightened Def Con from 2.60377e-005 ++++++to 2.60379e-005
Heightened Def Con from 2.60379e-005 ++++to 2.60389e-005
Heightened Def Con from 2.60389e-005 +++++++to 2.60399e-005
Heightened Def Con from 2.60399e-005 ++++++++to 2.60409e-005
Heightened Def Con from 2.60409e-005 +++to 2.60419e-005
Heightened Def Con from 2.60419e-005 ++++++to 2.60429e-005
Heightened Def Con from 2.60438e-005 +++++++to 2.60448e-005
Heightened Def Con from 2.60448e-005 ++++++to 2.60458e-005
Heightened Def Con from 2.60458e-005 to 2.60468e-005
Heightened Def Con from 2.60468e-005 +to 2.60469e-005
Heightened Def Con from 2.60469e-005 +++++++to 2.60489e-005
Heightened Def Con from 2.60489e-005 +++++++to 2.60509e-005
Heightened Def Con from 2.60509e-005 ++++++++to 2.60559e-005
Heightened Def Con from 2.60571e-005 +++++to 2.60571e-005
Heightened Def Con from 2.60571e-005 ++++++++to 2.60601e-005
Heightened Def Con from 2.60601e-005 +++++++to 2.60621e-005
Heightened Def Con from 2.60621e-005 +++++++++to 2.60691e-005
Heightened Def Con from 2.60691e-005 ++++++++to 2.60721e-005
Heightened Def Con from 2.60721e-005 ++++++++to 2.60751e-005
Heightened Def Con from 2.60761e-005 ++++++++to 2.60781e-005
Heightened Def Con from 2.60781e-005 +++++++to 2.60801e-005
Heightened Def Con from 2.60801e-005 +++++++to 2.60821e-005
Heightened Def Con from 2.60821e-005 +++++++to 2.60861e-005
Heightened Def Con from 2.60861e-005 ++++++++to 2.60891e-005
Heightened Def Con from 2.60891e-005 +++++++to 2.60911e-005
Heightened Def Con from 2.60911e-005 ++++++++to 2.60941e-005
Heightened Def Con from 2.60941e-005 ++++++++to 2.60981e-005
Heightened Def Con from 2.60981e-005 ++++++++to 2.61011e-005
Heightened Def Con from 2.61011e-005 to 2.61021e-005
Heightened Def Con from 2.61021e-005 ++++++to 2.61031e-005
Heightened Def Con from 2.61041e-005 to 2.61041e-005
Heightened Def Con from 2.61041e-005 +++++++to 2.61051e-005
Heightened Def Con from 2.61051e-005 +++++++to 2.61061e-005
Heightened Def Con from 2.61071e-005 +++++++to 2.61081e-005
Heightened Def Con from 2.61081e-005 +++++++to 2.61091e-005
Heightened Def Con from 2.61091e-005 +to 2.61101e-005
Heightened Def Con from 2.61101e-005 to 2.61111e-005
Heightened Def Con from 2.61125e-005 ++to 2.61135e-005
Heightened Def Con from 2.61135e-005 ++++++to 2.61145e-005
Heightened Def Con from 2.61145e-005 to 2.61146e-005
Heightened Def Con from 2.61146e-005 ++++++++to 2.61156e-005
Heightened Def Con from 2.61156e-005 ++++to 2.61157e-005
Heightened Def Con from 2.61157e-005 +++++++to 2.61167e-005
Heightened Def Con from 2.61167e-005 ++++to 2.61177e-005
Heightened Def Con from 2.61177e-005 +++++++to 2.61187e-005
Heightened Def Con from 2.61187e-005 +++++to 2.61197e-005
Heightened Def Con from 2.61197e-005 ++++to 2.61207e-005
Heightened Def Con from 2.61207e-005 +to 2.61217e-005
Heightened Def Con from 2.61217e-005 +++to 2.61227e-005
Heightened Def Con from 2.61227e-005 +to 2.61229e-005
Heightened Def Con from 2.61229e-005 ++++++++to 2.61239e-005
Heightened Def Con from 2.61258e-005 +++++++to 2.6126e-005
Heightened Def Con from 2.6126e-005 +++++++to 2.6127e-005
Heightened Def Con from 2.6127e-005 +++++++to 2.6128e-005
Heightened Def Con from 2.61293e-005 ++to 2.61303e-005
Heightened Def Con from 2.61303e-005 to 2.61313e-005
Heightened Def Con from 2.61313e-005 +++++++to 2.61315e-005
Heightened Def Con from 2.61315e-005 ++++++to 2.61325e-005
Heightened Def Con from 2.61325e-005 ++++to 2.61335e-005
Heightened Def Con from 2.61335e-005 +to 2.61345e-005
Heightened Def Con from 2.61345e-005 +++++++to 2.61355e-005
Heightened Def Con from 2.61355e-005 +++++++to 2.61356e-005
Heightened Def Con from 2.61356e-005 +++++++to 2.61366e-005
Heightened Def Con from 2.61366e-005 ++++++to 2.61376e-005
Heightened Def Con from 2.61376e-005 ++to 2.61377e-005
Heightened Def Con from 2.61377e-005 ++++++to 2.61378e-005
Heightened Def Con from 2.61378e-005 ++++++++to 2.61388e-005
Heightened Def Con from 2.61388e-005 ++++++to 2.61398e-005
Heightened Def Con from 2.61398e-005 ++++++to 2.61408e-005
Heightened Def Con from 2.61408e-005 ++++++++to 2.61418e-005
Heightened Def Con from 2.61418e-005 ++++to 2.61428e-005
Heightened Def Con from 2.61428e-005 +to 2.61438e-005
Heightened Def Con from 2.61438e-005 ++++++to 2.61448e-005
Heightened Def Con from 2.61448e-005 +to 2.61458e-005
Heightened Def Con from 2.61458e-005 +++++++to 2.61468e-005
Heightened Def Con from 2.61479e-005 ++++++to 2.61489e-005
Heightened Def Con from 2.61489e-005 +++++++to 2.61499e-005
Heightened Def Con from 2.61499e-005 ++++++to 2.61509e-005
Heightened Def Con from 2.61509e-005 ++++++++to 2.61519e-005
Heightened Def Con from 2.61519e-005 +++to 2.61529e-005
Heightened Def Con from 2.61529e-005 ++++++++to 2.61539e-005
Heightened Def Con from 2.61539e-005 ++++++to 2.61549e-005
Heightened Def Con from 2.61549e-005 ++++++++to 2.61559e-005
Heightened Def Con from 2.61559e-005 +++++++to 2.6156e-005
Heightened Def Con from 2.6156e-005 +++++++to 2.6157e-005
Heightened Def Con from 2.61572e-005 +++++++to 2.61582e-005
Heightened Def Con from 2.61582e-005 +++++++to 2.61592e-005
Heightened Def Con from 2.61592e-005 ++to 2.61593e-005
Heightened Def Con from 2.61593e-005 ++to 2.61603e-005
Heightened Def Con from 2.61603e-005 +++++to 2.61613e-005
Heightened Def Con from 2.61625e-005 ++++++++to 2.61635e-005
Heightened Def Con from 2.61635e-005 ++++++to 2.61645e-005
Heightened Def Con from 2.61645e-005 ++to 2.61646e-005
Heightened Def Con from 2.61646e-005 ++++++++to 2.61656e-005
Heightened Def Con from 2.61656e-005 to 2.61666e-005
Heightened Def Con from 2.61666e-005 +++++++to 2.61676e-005
Heightened Def Con from 2.61676e-005 to 2.61686e-005
Heightened Def Con from 2.61699e-005 +++++++to 2.61709e-005
Heightened Def Con from 2.61709e-005 ++++++to 2.61719e-005
Heightened Def Con from 2.61719e-005 ++++++++to 2.61729e-005
Heightened Def Con from 2.61729e-005 +++++++to 2.61739e-005
Heightened Def Con from 2.61739e-005 ++++++to 2.61749e-005
Heightened Def Con from 2.61749e-005 +++++++to 2.61759e-005
Heightened Def Con from 2.61759e-005 to 2.6176e-005
Heightened Def Con from 2.6176e-005 ++++++to 2.6177e-005
Heightened Def Con from 2.6177e-005 ++to 2.6178e-005
Heightened Def Con from 2.6178e-005 ++++++to 2.6179e-005
Heightened Def Con from 2.6179e-005 ++++++to 2.618e-005
Heightened Def Con from 2.618e-005 +++to 2.61801e-005
Heightened Def Con from 2.61801e-005 +++++++to 2.61811e-005
Heightened Def Con from 2.61811e-005 +++++to 2.61821e-005
Heightened Def Con from 2.61821e-005 to 2.61823e-005
Heightened Def Con from 2.61823e-005 ++++++++to 2.61833e-005
Heightened Def Con from 2.61833e-005 +++to 2.61843e-005
Heightened Def Con from 2.61843e-005 ++++++to 2.61844e-005
Heightened Def Con from 2.61844e-005 +to 2.61854e-005
Heightened Def Con from 2.61854e-005 +++++++to 2.61864e-005
Heightened Def Con from 2.61864e-005 +++++to 2.61874e-005
Heightened Def Con from 2.61874e-005 to 2.61884e-005
Heightened Def Con from 2.61884e-005 ++to 2.61894e-005
Heightened Def Con from 2.61913e-005 to 2.61923e-005
Heightened Def Con from 2.61923e-005 +++to 2.61923e-005
Heightened Def Con from 2.61923e-005 to 2.61934e-005
Heightened Def Con from 2.61934e-005 +to 2.61944e-005
Heightened Def Con from 2.61947e-005 +++++++to 2.61947e-005
Heightened Def Con from 2.61947e-005 ++++++to 2.61957e-005
Heightened Def Con from 2.61957e-005 +++++++to 2.61967e-005
Heightened Def Con from 2.61967e-005 ++++++to 2.61977e-005
Heightened Def Con from 2.61977e-005 +++to 2.61978e-005
Heightened Def Con from 2.61978e-005 +++++++to 2.61988e-005
Heightened Def Con from 2.61988e-005 +++to 2.61988e-005
Heightened Def Con from 2.61988e-005 ++++to 2.61998e-005
Heightened Def Con from 2.61998e-005 ++++++to 2.62008e-005
Heightened Def Con from 2.62008e-005 +++++++to 2.62018e-005
Heightened Def Con from 2.62038e-005 +to 2.62048e-005
Heightened Def Con from 2.62048e-005 +++++to 2.62058e-005
Heightened Def Con from 2.62058e-005 +++++++to 2.62068e-005
Heightened Def Con from 2.62068e-005 ++++++to 2.62078e-005
Heightened Def Con from 2.62078e-005 ++++++++to 2.62088e-005
Heightened Def Con from 2.62088e-005 ++++to 2.62098e-005
Heightened Def Con from 2.62101e-005 to 2.62101e-005
Heightened Def Con from 2.62101e-005 ++to 2.62111e-005
Heightened Def Con from 2.62111e-005 +++++to 2.62112e-005
Heightened Def Con from 2.62112e-005 ++++++++to 2.62122e-005
Heightened Def Con from 2.62122e-005 ++to 2.62132e-005
Heightened Def Con from 2.62132e-005 ++++to 2.62142e-005
Heightened Def Con from 2.62142e-005 +++to 2.62152e-005
Heightened Def Con from 2.62152e-005 +++to 2.62154e-005
Heightened Def Con from 2.62154e-005 ++++++++to 2.62164e-005
Heightened Def Con from 2.62164e-005 ++to 2.62174e-005
Heightened Def Con from 2.62174e-005 +++to 2.62184e-005
Heightened Def Con from 2.62184e-005 to 2.62194e-005
Heightened Def Con from 2.62194e-005 +++++++to 2.62194e-005
Heightened Def Con from 2.62194e-005 ++++++to 2.62204e-005
Heightened Def Con from 2.62204e-005 ++++++to 2.62214e-005
Heightened Def Con from 2.62234e-005 +++++++to 2.62244e-005
Heightened Def Con from 2.62244e-005 ++++++++to 2.62254e-005
Heightened Def Con from 2.62254e-005 ++++++to 2.62264e-005
Heightened Def Con from 2.62284e-005 ++++++++to 2.62294e-005
Heightened Def Con from 2.62294e-005 +++++++to 2.62304e-005
Heightened Def Con from 2.62304e-005 ++++++++to 2.62314e-005
Heightened Def Con from 2.62316e-005 +++to 2.62326e-005
Heightened Def Con from 2.62326e-005 ++to 2.62336e-005
Heightened Def Con from 2.62336e-005 +++to 2.62346e-005
Heightened Def Con from 2.62346e-005 ++++++++to 2.62356e-005
Heightened Def Con from 2.62356e-005 +++to 2.62357e-005
Heightened Def Con from 2.62357e-005 +++++++to 2.62367e-005
Heightened Def Con from 2.62367e-005 ++++++to 2.62377e-005
Heightened Def Con from 2.62377e-005 ++++++to 2.62387e-005
Heightened Def Con from 2.62387e-005 +to 2.62387e-005
Heightened Def Con from 2.62387e-005 +++++to 2.62397e-005
Heightened Def Con from 2.62397e-005 ++++to 2.62407e-005
Heightened Def Con from 2.62407e-005 +++++++to 2.62417e-005
Heightened Def Con from 2.62417e-005 +++++++to 2.62427e-005
Heightened Def Con from 2.62427e-005 +++++to 2.62437e-005
Heightened Def Con from 2.62437e-005 +++++to 2.62447e-005
Heightened Def Con from 2.62447e-005 ++++++to 2.62457e-005
Heightened Def Con from 2.62457e-005 +to 2.62467e-005
Heightened Def Con from 2.6247e-005 +++to 2.6248e-005
Heightened Def Con from 2.6248e-005 ++to 2.62481e-005
Heightened Def Con from 2.62481e-005 ++to 2.62481e-005
Heightened Def Con from 2.62482e-005 +++++++to 2.62492e-005
Heightened Def Con from 2.62494e-005 ++++++to 2.62504e-005
Heightened Def Con from 2.62504e-005 to 2.62505e-005
Heightened Def Con from 2.62505e-005 +++to 2.62515e-005
Heightened Def Con from 2.62515e-005 ++++++to 2.62525e-005
Heightened Def Con from 2.62525e-005 ++++++to 2.62535e-005
Heightened Def Con from 2.62535e-005 +++++++to 2.62545e-005
Heightened Def Con from 2.62545e-005 ++++++to 2.62555e-005
Heightened Def Con from 2.62558e-005 ++++++++to 2.62568e-005
Heightened Def Con from 2.62568e-005 +++++++to 2.62578e-005
Heightened Def Con from 2.62578e-005 +++++to 2.62588e-005
Heightened Def Con from 2.62588e-005 +to 2.62598e-005
Heightened Def Con from 2.62598e-005 to 2.62608e-005
Heightened Def Con from 2.62608e-005 +++++++to 2.62618e-005
Heightened Def Con from 2.62618e-005 ++++++to 2.62628e-005
Heightened Def Con from 2.62628e-005 ++++++to 2.62638e-005
Heightened Def Con from 2.62638e-005 +++++++to 2.62648e-005
Heightened Def Con from 2.62648e-005 +++to 2.62658e-005
Heightened Def Con from 2.62658e-005 ++++++++to 2.62668e-005
Heightened Def Con from 2.62668e-005 ++++++++to 2.62678e-005
Heightened Def Con from 2.62678e-005 +++++++to 2.62688e-005
Heightened Def Con from 2.62688e-005 ++++++to 2.62689e-005
Heightened Def Con from 2.62689e-005 +to 2.62699e-005
Heightened Def Con from 2.62699e-005 ++++++to 2.62709e-005
Heightened Def Con from 2.62709e-005 +++++++to 2.62719e-005
Heightened Def Con from 2.62719e-005 ++++++to 2.62729e-005
Heightened Def Con from 2.62729e-005 ++++++to 2.62739e-005
Heightened Def Con from 2.62739e-005 +++++++to 2.62749e-005
Heightened Def Con from 2.62749e-005 +++to 2.6275e-005
Heightened Def Con from 2.6275e-005 ++++++to 2.6276e-005
Heightened Def Con from 2.6276e-005 +++++++to 2.6277e-005
Heightened Def Con from 2.6277e-005 ++++++to 2.6278e-005
Heightened Def Con from 2.6278e-005 ++++to 2.62781e-005
Heightened Def Con from 2.62781e-005 ++++to 2.62782e-005
Heightened Def Con from 2.62782e-005 ++to 2.62783e-005
Heightened Def Con from 2.62783e-005 ++++++to 2.62793e-005
Heightened Def Con from 2.62793e-005 ++++to 2.62803e-005
Heightened Def Con from 2.62803e-005 ++to 2.62813e-005
Heightened Def Con from 2.62813e-005 +to 2.62823e-005
Heightened Def Con from 2.62823e-005 ++++++++to 2.62833e-005
Heightened Def Con from 2.62833e-005 ++to 2.62843e-005
Heightened Def Con from 2.62843e-005 ++++to 2.62853e-005
Heightened Def Con from 2.62853e-005 ++++++++to 2.62863e-005
Heightened Def Con from 2.62863e-005 +++++++to 2.62873e-005
Heightened Def Con from 2.62873e-005 ++to 2.62883e-005
Heightened Def Con from 2.62883e-005 +++++++to 2.62893e-005
Heightened Def Con from 2.62893e-005 ++++++++to 2.62903e-005
Heightened Def Con from 2.62903e-005 +++++++++to 2.62913e-005
Heightened Def Con from 2.62916e-005 ++++++to 2.62926e-005
Heightened Def Con from 2.62926e-005 ++++++++to 2.62936e-005
Heightened Def Con from 2.62936e-005 ++++++to 2.62946e-005
Heightened Def Con from 2.62946e-005 ++++++++to 2.62956e-005
Heightened Def Con from 2.62956e-005 ++++++to 2.62966e-005
Heightened Def Con from 2.62968e-005 to 2.62978e-005
Heightened Def Con from 2.62981e-005 ++to 2.62982e-005
Heightened Def Con from 2.62982e-005 +++++++to 2.62992e-005
Heightened Def Con from 2.62992e-005 ++to 2.63002e-005
Heightened Def Con from 2.63002e-005 +to 2.63012e-005
Heightened Def Con from 2.63012e-005 to 2.63022e-005
Heightened Def Con from 2.63022e-005 +++to 2.63032e-005
Heightened Def Con from 2.63052e-005 ++to 2.63062e-005
Heightened Def Con from 2.63062e-005 to 2.63072e-005
Heightened Def Con from 2.63072e-005 +++++++to 2.63082e-005
Heightened Def Con from 2.63082e-005 +++++++to 2.63092e-005
Heightened Def Con from 2.63092e-005 ++to 2.63093e-005
Heightened Def Con from 2.63093e-005 ++++++to 2.63103e-005
Heightened Def Con from 2.63106e-005 ++++++++to 2.63116e-005
Heightened Def Con from 2.63116e-005 ++to 2.63126e-005
Heightened Def Con from 2.63126e-005 ++++++to 2.63136e-005
Heightened Def Con from 2.63136e-005 to 2.63146e-005
Heightened Def Con from 2.63146e-005 to 2.63156e-005
Heightened Def Con from 2.63156e-005 ++++++to 2.63166e-005
Heightened Def Con from 2.63186e-005 ++++++to 2.63196e-005
Heightened Def Con from 2.63196e-005 +++++++++to 2.63206e-005
Heightened Def Con from 2.63206e-005 ++++++++to 2.63216e-005
Heightened Def Con from 2.63216e-005 +++to 2.63226e-005
Heightened Def Con from 2.63226e-005 ++++++to 2.63227e-005
Heightened Def Con from 2.63227e-005 +to 2.63237e-005
Heightened Def Con from 5.08679e-005 ++to 5.08689e-005
Heightened Def Con from 5.08689e-005 +++++++to 5.08699e-005
Heightened Def Con from 5.08699e-005 +++++to 5.08709e-005
Heightened Def Con from 5.08709e-005 +++++to 5.08719e-005
Heightened Def Con from 5.08719e-005 +to 5.08729e-005
Heightened Def Con from 5.08729e-005 to 5.08739e-005
Heightened Def Con from 5.08739e-005 +++++++to 5.08749e-005
Heightened Def Con from 5.08749e-005 +++++to 5.08759e-005
Heightened Def Con from 5.08759e-005 to 5.08761e-005
Heightened Def Con from 5.08761e-005 ++to 5.08771e-005
Heightened Def Con from 5.08771e-005 +++++++to 5.08781e-005
Heightened Def Con from 5.08781e-005 to 5.08791e-005
Heightened Def Con from 5.08791e-005 ++++++++to 5.08801e-005
Heightened Def Con from 5.08801e-005 ++++to 5.08811e-005
Heightened Def Con from 5.08811e-005 +++++++++to 5.08831e-005
Heightened Def Con from 5.08831e-005 +++++++++to 5.08861e-005
Heightened Def Con from 5.08861e-005 ++++++++to 5.08901e-005
Heightened Def Con from 5.08901e-005 ++++to 5.08931e-005
Heightened Def Con from 5.08951e-005 +++++++++to 5.09001e-005
Heightened Def Con from 5.09001e-005 ++++++++to 5.09061e-005
Heightened Def Con from 5.09061e-005 ++++++++to 5.09111e-005
Heightened Def Con from 5.09131e-005 ++++++++to 5.09181e-005
Heightened Def Con from 5.09181e-005 to 5.09211e-005
Heightened Def Con from 5.09211e-005 +++to 5.09211e-005
Heightened Def Con from 5.09211e-005 +++++++++to 5.09241e-005
Heightened Def Con from 5.09241e-005 ++++++to 5.09291e-005
Heightened Def Con from 5.09291e-005 +to 5.09292e-005
Heightened Def Con from 5.09292e-005 to 5.09322e-005
Heightened Def Con from 5.09322e-005 ++to 5.09342e-005
Heightened Def Con from 5.09342e-005 ++++++++++to 5.09373e-005
Heightened Def Con from 5.09373e-005 +to 5.09375e-005
Heightened Def Con from 5.09375e-005 to 5.09395e-005
Heightened Def Con from 5.09395e-005 +to 5.09405e-005
Heightened Def Con from 5.09405e-005 +to 5.09415e-005
Heightened Def Con from 5.09415e-005 +++++++to 5.09425e-005
Heightened Def Con from 5.09425e-005 +++++++to 5.09435e-005
Heightened Def Con from 5.09435e-005 +++++++to 5.09445e-005
Heightened Def Con from 5.09445e-005 +to 5.09455e-005
Heightened Def Con from 5.09455e-005 +++to 5.09465e-005
Heightened Def Con from 5.09465e-005 +++to 5.09475e-005
Heightened Def Con from 5.09475e-005 +++to 5.09485e-005
Heightened Def Con from 5.09485e-005 ++++to 5.09495e-005
Heightened Def Con from 5.09495e-005 +to 5.09505e-005
Heightened Def Con from 5.09505e-005 to 5.09515e-005
Heightened Def Con from 5.09515e-005 to 5.09525e-005
Heightened Def Con from 5.09525e-005 +to 5.09535e-005
Heightened Def Con from 5.09535e-005 ++to 5.09536e-005
Heightened Def Con from 5.09536e-005 +++to 5.09537e-005
Heightened Def Con from 5.09537e-005 ++++to 5.09557e-005
Heightened Def Con from 5.09557e-005 +++to 5.09568e-005
Heightened Def Con from 5.09569e-005 ++++to 5.09599e-005
Heightened Def Con from 5.09599e-005 ++++++++to 5.0962e-005
Heightened Def Con from 5.0962e-005 +++++++++to 5.0966e-005
Heightened Def Con from 5.0966e-005 ++++++++to 5.0972e-005
Heightened Def Con from 5.0972e-005 ++to 5.09721e-005
Heightened Def Con from 5.09721e-005 +++++++++to 5.09791e-005
Heightened Def Con from 5.09811e-005 ++++++++to 5.09851e-005
Heightened Def Con from 5.09851e-005 ++++++++to 5.09882e-005
Heightened Def Con from 5.09882e-005 ++++++++to 5.09932e-005
Heightened Def Con from 5.09952e-005 ++++++++to 5.09982e-005
Heightened Def Con from 5.09982e-005 ++++++++to 5.10034e-005
Heightened Def Con from 5.10034e-005 +++++to 5.10064e-005
Heightened Def Con from 5.10064e-005 ++++++++to 5.10134e-005
Heightened Def Con from 5.10134e-005 ++++++++to 5.10165e-005
Heightened Def Con from 5.10165e-005 ++++++++to 5.10205e-005
Heightened Def Con from 5.10207e-005 ++++++++to 5.10237e-005
Heightened Def Con from 5.10237e-005 ++++to 5.10249e-005
Heightened Def Con from 5.10251e-005 ++to 5.10271e-005
Heightened Def Con from 5.1071e-005 +++++++++to 5.1073e-005
Heightened Def Con from 5.1073e-005 ++to 5.10732e-005
Heightened Def Con from 5.10732e-005 ++++++++to 5.10762e-005
Heightened Def Con from 5.10762e-005 +to 5.10782e-005
Heightened Def Con from 5.10782e-005 +to 5.10793e-005
Heightened Def Con from 5.10793e-005 +++++to 5.10824e-005
Heightened Def Con from 5.10824e-005 ++++++to 5.10854e-005
Heightened Def Con from 5.10854e-005 ++++++++to 5.10894e-005
Heightened Def Con from 5.10894e-005 ++++++++to 5.10934e-005
Heightened Def Con from 5.10944e-005 +++++++to 5.10965e-005
Heightened Def Con from 5.10965e-005 ++++++to 5.11015e-005
Heightened Def Con from 5.11025e-005 ++++++++to 5.11085e-005
Heightened Def Con from 5.11085e-005 ++++++++to 5.11135e-005
Heightened Def Con from 5.11135e-005 ++++++++to 5.11185e-005
Heightened Def Con from 5.11185e-005 +++++++to 5.11235e-005
Heightened Def Con from 5.11235e-005 to 5.11245e-005
Heightened Def Con from 5.11254e-005 ++to 5.11264e-005
Heightened Def Con from 5.11265e-005 to 5.11267e-005
Heightened Def Con from 5.11267e-005 to 5.11287e-005
Heightened Def Con from 5.11287e-005 ++to 5.11297e-005
Heightened Def Con from 5.11297e-005 ++to 5.11307e-005
Heightened Def Con from 5.11319e-005 ++to 5.11329e-005
Heightened Def Con from 5.11329e-005 ++to 5.11339e-005
Heightened Def Con from 5.11339e-005 ++to 5.11349e-005
Heightened Def Con from 5.11349e-005 to 5.11359e-005
Heightened Def Con from 5.11359e-005 ++++to 5.11369e-005
Heightened Def Con from 5.11369e-005 +++to 5.11379e-005
Heightened Def Con from 5.11379e-005 ++to 5.11389e-005
Heightened Def Con from 5.11409e-005 to 5.11419e-005
Heightened Def Con from 5.11439e-005 to 5.11449e-005
Heightened Def Con from 5.11449e-005 +to 5.11459e-005
Heightened Def Con from 5.11474e-005 +++to 5.11484e-005
Heightened Def Con from 5.11484e-005 to 5.11494e-005
Heightened Def Con from 5.11494e-005 to 5.11504e-005
Heightened Def Con from 5.11504e-005 to 5.11514e-005
Heightened Def Con from 5.11514e-005 ++++++to 5.11524e-005
Heightened Def Con from 5.11524e-005 +to 5.11534e-005
Heightened Def Con from 5.11534e-005 +++to 5.11544e-005
Heightened Def Con from 5.11544e-005 ++++++++to 5.11554e-005
Heightened Def Con from 5.11554e-005 ++to 5.11564e-005
Heightened Def Con from 5.11564e-005 +++to 5.11574e-005
Heightened Def Con from 5.11574e-005 to 5.11584e-005
Heightened Def Con from 5.11584e-005 +++to 5.11594e-005
Heightened Def Con from 5.11594e-005 +++++to 5.11604e-005
Heightened Def Con from 5.11604e-005 +++++to 5.11614e-005
Heightened Def Con from 5.11614e-005 ++++++++to 5.11624e-005
Heightened Def Con from 5.11636e-005 +to 5.11646e-005
Heightened Def Con from 5.11646e-005 +++++++++to 5.11656e-005
Heightened Def Con from 5.11656e-005 ++++++to 5.11666e-005
Heightened Def Con from 5.11666e-005 ++++to 5.11676e-005
Heightened Def Con from 5.11676e-005 ++++++to 5.11686e-005
Heightened Def Con from 5.11686e-005 ++to 5.11696e-005
Heightened Def Con from 5.11696e-005 to 5.11706e-005
Heightened Def Con from 5.11706e-005 to 5.11716e-005
Heightened Def Con from 5.11716e-005 ++++to 5.11726e-005
Heightened Def Con from 5.11726e-005 to 5.11736e-005
Heightened Def Con from 5.11736e-005 +to 5.11746e-005
Heightened Def Con from 5.11747e-005 to 5.11767e-005
Heightened Def Con from 5.11767e-005 ++++++++to 5.11777e-005
Heightened Def Con from 5.11803e-005 +to 5.11813e-005
Heightened Def Con from 5.11813e-005 to 5.11823e-005
Heightened Def Con from 5.11823e-005 ++++to 5.11833e-005
Heightened Def Con from 5.11833e-005 +++++to 5.11843e-005
Heightened Def Con from 5.11843e-005 ++to 5.11853e-005
Heightened Def Con from 5.11853e-005 +++to 5.11863e-005
Heightened Def Con from 5.11863e-005 ++++++to 5.11873e-005
Heightened Def Con from 5.11873e-005 +++to 5.11883e-005
Heightened Def Con from 5.11883e-005 to 5.11893e-005
Heightened Def Con from 5.11893e-005 +to 5.11903e-005
Heightened Def Con from 5.11905e-005 +to 5.11915e-005
Heightened Def Con from 5.11915e-005 ++++to 5.11925e-005
Heightened Def Con from 5.11925e-005 +++++to 5.11935e-005
Heightened Def Con from 5.11935e-005 ++++++++to 5.11945e-005
Heightened Def Con from 5.11945e-005 +to 5.11955e-005
Heightened Def Con from 5.11969e-005 +++to 5.11979e-005
Heightened Def Con from 5.11979e-005 +++to 5.11989e-005
Heightened Def Con from 5.11989e-005 ++++++to 5.11999e-005
Heightened Def Con from 5.11999e-005 +++++++to 5.12009e-005
Heightened Def Con from 5.12009e-005 +++++to 5.12019e-005
Heightened Def Con from 5.12019e-005 +++++to 5.12029e-005
Heightened Def Con from 5.12029e-005 +++to 5.12039e-005
Heightened Def Con from 5.12039e-005 +++to 5.12049e-005
Heightened Def Con from 5.12049e-005 ++to 5.1205e-005
Heightened Def Con from 5.12052e-005 +++to 5.12062e-005
Heightened Def Con from 5.12062e-005 +to 5.12072e-005
Heightened Def Con from 5.12072e-005 +to 5.12082e-005
Heightened Def Con from 5.12082e-005 +to 5.12092e-005
Heightened Def Con from 5.12092e-005 to 5.12094e-005
Heightened Def Con from 5.12094e-005 +to 5.12104e-005
Heightened Def Con from 5.12104e-005 +++to 5.12114e-005
Heightened Def Con from 5.12114e-005 +++to 5.12124e-005
Heightened Def Con from 5.12168e-005 ++++++++to 5.12178e-005
Heightened Def Con from 5.12178e-005 ++++to 5.12188e-005
Heightened Def Con from 5.12188e-005 +++to 5.12198e-005
Heightened Def Con from 5.12198e-005 +++to 5.12208e-005
Heightened Def Con from 5.12208e-005 ++++++++to 5.12218e-005
Heightened Def Con from 5.12218e-005 to 5.12228e-005
Heightened Def Con from 5.12228e-005 +++to 5.12229e-005
Heightened Def Con from 5.12229e-005 +++++to 5.12239e-005
Heightened Def Con from 5.12239e-005 +to 5.12249e-005
Heightened Def Con from 5.12249e-005 ++to 5.12259e-005
Heightened Def Con from 5.12279e-005 +++++++to 5.12289e-005
Heightened Def Con from 5.12313e-005 to 5.12314e-005
Heightened Def Con from 5.12314e-005 ++++to 5.12324e-005
Heightened Def Con from 5.12324e-005 ++to 5.12334e-005
Heightened Def Con from 5.12334e-005 +++to 5.12344e-005
Heightened Def Con from 5.12344e-005 +to 5.12354e-005
Heightened Def Con from 5.12354e-005 ++++to 5.12364e-005
Heightened Def Con from 5.12384e-005 +++to 5.12394e-005
Heightened Def Con from 5.12394e-005 to 5.12404e-005
Heightened Def Con from 5.12404e-005 to 5.12414e-005
Heightened Def Con from 5.12414e-005 ++++++++to 5.12424e-005
Heightened Def Con from 5.12424e-005 ++++to 5.12434e-005
Heightened Def Con from 5.12434e-005 to 5.12444e-005
Heightened Def Con from 5.12444e-005 ++++to 5.12454e-005
Heightened Def Con from 5.12454e-005 ++++to 5.12464e-005
Heightened Def Con from 5.12464e-005 +++to 5.12474e-005
Heightened Def Con from 5.12474e-005 +++to 5.12484e-005
Heightened Def Con from 5.12504e-005 +to 5.12514e-005
Heightened Def Con from 5.12534e-005 ++++++++to 5.12544e-005
Heightened Def Con from 5.12544e-005 +to 5.12554e-005
Heightened Def Con from 5.12605e-005 +++++to 5.12615e-005
Heightened Def Con from 5.12635e-005 ++to 5.12645e-005
Heightened Def Con from 5.12665e-005 to 5.12675e-005
Heightened Def Con from 5.12695e-005 ++++to 5.12705e-005
Heightened Def Con from 7.58486e-005 ++++++++to 7.58496e-005
Heightened Def Con from 7.58496e-005 +++to 7.58506e-005
Heightened Def Con from 7.58517e-005 ++++++++to 7.58527e-005
Heightened Def Con from 7.58537e-005 ++++++to 7.58538e-005
Heightened Def Con from 7.58538e-005 ++++++++to 7.58558e-005
Heightened Def Con from 7.58558e-005 ++++++++to 7.58578e-005
Heightened Def Con from 7.58578e-005 ++++++++to 7.58598e-005
Heightened Def Con from 7.58609e-005 +++++++++to 7.58679e-005
Heightened Def Con from 7.58679e-005 ++++++++to 7.58719e-005
Heightened Def Con from 7.58719e-005 ++++++++to 7.58749e-005
Heightened Def Con from 7.58749e-005 +++++++to 7.58799e-005
Heightened Def Con from 7.58799e-005 ++++++++to 7.58849e-005
Heightened Def Con from 7.58849e-005 ++++++++to 7.58909e-005
Heightened Def Con from 7.58909e-005 ++++++++to 7.58949e-005
Heightened Def Con from 7.58949e-005 +++++++to 7.5897e-005
Heightened Def Con from 7.5897e-005 +++++to 7.58971e-005
Heightened Def Con from 7.58971e-005 +++++++++to 7.59041e-005
Heightened Def Con from 7.59041e-005 ++++++++to 7.59081e-005
Heightened Def Con from 7.59081e-005 ++++++++to 7.59101e-005
Heightened Def Con from 7.59101e-005 ++++++++to 7.59131e-005
Heightened Def Con from 7.59131e-005 ++to 7.59141e-005
Heightened Def Con from 7.59141e-005 to 7.59142e-005
Heightened Def Con from 7.59142e-005 ++++++++to 7.59152e-005
Heightened Def Con from 7.59152e-005 +++++to 7.59154e-005
[...]
Heightened Def Con from 0.000478517 +to 0.000478518
Heightened Def Con from 0.000478518 ++++++to 0.000478519
Heightened Def Con from 0.000478519 ++++++++to 0.00047852
Heightened Def Con from 0.00047852 +++++to 0.00047852
Heightened Def Con from 0.00047852 +++++++to 0.000478521
Heightened Def Con from 0.000478521 +++++to 0.000478522
Heightened Def Con from 0.000478522 ++++++to 0.000478523
Heightened Def Con from 0.000478523 ++to 0.000478523
Heightened Def Con from 0.000478523 ++++++to 0.000478524
Heightened Def Con from 0.000478524 to 0.000478526
Heightened Def Con from 0.000478526 +++++++to 0.000478527
Heightened Def Con from 0.000478527 ++++++to 0.000478528
Heightened Def Con from 0.00047853 ++++to 0.00047853
Heightened Def Con from 0.00047853 +++++++to 0.000478531
Heightened Def Con from 0.000478531 +++++++to 0.000478532
Heightened Def Con from 0.000478532 ++++++++to 0.000478533
Heightened Def Con from 0.000478533 +++++to 0.000478534
Heightened Def Con from 0.000478534 +++++to 0.000478535
Heightened Def Con from 0.000478535 ++++to 0.000478536
Heightened Def Con from 0.000478536 ++++++to 0.000478537
Heightened Def Con from 0.000478537 ++++++++to 0.000478538
Heightened Def Con from 0.000478538 +++++++++to 0.000478539
Heightened Def Con from 0.000478539 ++++to 0.00047854
Heightened Def Con from 0.00047854 ++++++++to 0.000478541
Heightened Def Con from 0.000478541 +++++to 0.000478542
Heightened Def Con from 0.000478542 +++++++to 0.000478543
Heightened Def Con from 0.000478543 to 0.000478544
Heightened Def Con from 0.000478544 ++++++to 0.000478545
Heightened Def Con from 0.000478545 to 0.000478545
Heightened Def Con from 0.000478545 +++++to 0.000478545
Heightened Def Con from 0.000478545 +++to 0.000478546
Heightened Def Con from 0.000478546 +++++++to 0.000478546
Heightened Def Con from 0.000478546 ++++++to 0.000478547
Heightened Def Con from 0.000478547 to 0.000478548
Heightened Def Con from 0.000478548 +++++++++to 0.000478549
Heightened Def Con from 0.000478549 ++++++++to 0.00047855
Heightened Def Con from 0.000478552 +++++++to 0.000478553
Heightened Def Con from 0.000478553 to 0.000478554
Heightened Def Con from 0.000478554 ++++++to 0.000478555
Heightened Def Con from 0.000478555 ++to 0.000478556
Heightened Def Con from 0.000478556 ++++++++to 0.000478557
Heightened Def Con from 0.000478559 +++++++to 0.00047856
Heightened Def Con from 0.00047856 ++++++++to 0.000478561
Heightened Def Con from 0.000478561 ++++to 0.000478562
Heightened Def Con from 0.000478562 +++++++++to 0.000478563
Heightened Def Con from 0.000478563 ++++++++to 0.000478564
Heightened Def Con from 0.000478564 ++++++++to 0.000478565
Heightened Def Con from 0.000478565 +++to 0.000478565
Heightened Def Con from 0.000478565 ++++++++to 0.000478566
Heightened Def Con from 0.000478566 +++to 0.000478567
Heightened Def Con from 0.000478569 +++++++to 0.00047857
Heightened Def Con from 0.00047857 ++++++to 0.000478571
Heightened Def Con from 0.000478571 +++++++to 0.000478572
Heightened Def Con from 0.000478572 +++++++to 0.000478573
Heightened Def Con from 0.000478573 ++++to 0.000478574
Heightened Def Con from 0.000478574 ++++++++to 0.000478575
Heightened Def Con from 0.000478575 ++++++++to 0.000478576
Heightened Def Con from 0.000478576 ++++++++to 0.000478577
Heightened Def Con from 0.000478577 +++to 0.000478577
Heightened Def Con from 0.000478577 ++++++++to 0.000478578
Heightened Def Con from 0.000478578 +++to 0.000478579
Heightened Def Con from 0.000478579 ++to 0.00047858
Heightened Def Con from 0.00047858 ++to 0.000478581
Heightened Def Con from 0.000478581 ++++++to 0.000478582
Heightened Def Con from 0.000478582 +++++++to 0.000478583
Heightened Def Con from 0.000478583 +to 0.000478583
Heightened Def Con from 0.000478583 to 0.000478584
Heightened Def Con from 0.000478584 +++to 0.000478585
Heightened Def Con from 0.000478585 ++++++++to 0.000478586
Heightened Def Con from 0.000478586 +++++to 0.000478586
Heightened Def Con from 0.000478586 +++++++to 0.000478587
Heightened Def Con from 0.000478587 ++++to 0.000478588
Heightened Def Con from 0.000478588 ++++++to 0.000478589
Heightened Def Con from 0.000478589 ++++++++to 0.00047859
Heightened Def Con from 0.00047859 +++++++to 0.000478591
Heightened Def Con from 0.000478591 ++++++to 0.000478592
Heightened Def Con from 0.000478592 +++to 0.000478593
Heightened Def Con from 0.000478593 ++++++++to 0.000478594
Heightened Def Con from 0.000478594 ++++++++to 0.000478595
Heightened Def Con from 0.000478595 ++++++++to 0.000478596
Heightened Def Con from 0.000478596 ++++++to 0.000478597
Heightened Def Con from 0.000478597 ++++++to 0.000478597
Heightened Def Con from 0.000478597 ++++++++to 0.000478597
Heightened Def Con from 0.000478597 ++to 0.000478598
Heightened Def Con from 0.000478598 +++++++to 0.000478599
Heightened Def Con from 0.000478601 ++++++to 0.000478602
Heightened Def Con from 0.000478602 +++++++++to 0.000478603
Heightened Def Con from 0.000478603 ++++++++to 0.000478604
Heightened Def Con from 0.000478604 ++to 0.000478605
Heightened Def Con from 0.000478605 ++++++to 0.000478606
Heightened Def Con from 0.000478606 ++++++++to 0.000478607
Heightened Def Con from 0.000478607 +to 0.000478608
Heightened Def Con from 0.000478608 to 0.000478609
Heightened Def Con from 0.000478609 +++++to 0.00047861
Heightened Def Con from 0.00047861 +to 0.00047861
Heightened Def Con from 0.00047861 +to 0.000478611
Heightened Def Con from 0.000478611 +++++++to 0.000478612
Heightened Def Con from 0.000478613 +to 0.000478614
Heightened Def Con from 0.000478614 ++++to 0.000478615
Heightened Def Con from 0.000478615 ++++++to 0.000478616
Heightened Def Con from 0.000478618 +++++to 0.000478619
Heightened Def Con from 0.000478619 ++++to 0.00047862
Heightened Def Con from 0.00047862 ++++++++to 0.000478621
Heightened Def Con from 0.000478623 +++++++to 0.000478624
Heightened Def Con from 0.000478624 ++++++++to 0.000478625
Heightened Def Con from 0.000478625 +to 0.000478626
Heightened Def Con from 0.000478626 ++++++to 0.000478627
Heightened Def Con from 0.000478627 ++++++++to 0.000478628
Heightened Def Con from 0.000478628 to 0.000478628
Heightened Def Con from 0.000478628 +to 0.000478629
Heightened Def Con from 0.000478629 +++++to 0.00047863
Heightened Def Con from 0.00047863 +++++++to 0.00047863
Heightened Def Con from 0.00047863 +to 0.000478631
Heightened Def Con from 0.000478631 ++++++++to 0.000478632
Heightened Def Con from 0.000478632 +++++to 0.000478633
Heightened Def Con from 0.000478633 +++++++to 0.000478633
Heightened Def Con from 0.000478633 +to 0.000478634
Heightened Def Con from 0.000478634 to 0.000478635
Heightened Def Con from 0.000478635 to 0.000478636
Heightened Def Con from 0.000478636 +to 0.000478637
Heightened Def Con from 0.000478637 ++to 0.000478638
Heightened Def Con from 0.000478638 +++to 0.000478639
Heightened Def Con from 0.000478639 to 0.00047864
Heightened Def Con from 0.00047864 ++to 0.000478641
Heightened Def Con from 0.000478641 +++++++to 0.000478641
Heightened Def Con from 0.000478641 ++++++++to 0.000478642
Heightened Def Con from 0.000478642 to 0.000478643
Heightened Def Con from 0.000478643 +++to 0.000478644
Heightened Def Con from 0.000478646 +++++++to 0.000478647
Heightened Def Con from 0.000478647 +++++to 0.000478648
Heightened Def Con from 0.000478648 ++++to 0.000478648
Heightened Def Con from 0.000478648 ++to 0.000478649
Heightened Def Con from 0.000478649 +to 0.00047865
Heightened Def Con from 0.00047865 ++++++++to 0.000478651
Heightened Def Con from 0.000478651 +to 0.000478652
Heightened Def Con from 0.000478652 +++++++to 0.000478653
Heightened Def Con from 0.000478653 +to 0.000478654
Heightened Def Con from 0.000478654 +++to 0.000478655
Heightened Def Con from 0.000478655 to 0.000478656
Heightened Def Con from 0.000478656 +++++to 0.000478656
Heightened Def Con from 0.000478656 +++to 0.000478657
Heightened Def Con from 0.000478659 +++++to 0.000478659
Heightened Def Con from 0.000478659 to 0.000478659
Heightened Def Con from 0.000478659 to 0.000478659
Heightened Def Con from 0.000478659 ++++to 0.00047866
Heightened Def Con from 0.00047866 ++++++to 0.000478661
Heightened Def Con from 0.000478661 +++++to 0.000478662
Heightened Def Con from 0.000478662 +to 0.000478663
Heightened Def Con from 0.000478663 ++++++++to 0.000478664
Heightened Def Con from 0.000478664 +++++to 0.000478665
Heightened Def Con from 0.000478665 ++to 0.000478666
Heightened Def Con from 0.000478668 ++to 0.000478669
Heightened Def Con from 0.000478669 ++to 0.00047867
Heightened Def Con from 0.00047867 +++++to 0.000478671
Heightened Def Con from 0.000478671 +++++to 0.000478672
Heightened Def Con from 0.000478672 ++++++++to 0.000478673
Heightened Def Con from 0.000478673 ++++++++to 0.000478674
Heightened Def Con from 0.000478674 to 0.000478675
Heightened Def Con from 0.000478675 to 0.000478676
Heightened Def Con from 0.000478676 ++++to 0.000478677
Heightened Def Con from 0.000478677 +to 0.000478678
Heightened Def Con from 0.000478678 ++to 0.000478679
Heightened Def Con from 0.000478679 +to 0.00047868
Heightened Def Con from 0.00047868 ++++++to 0.000478681
Heightened Def Con from 0.000478681 to 0.000478682
Heightened Def Con from 0.000478682 +++++++to 0.000478682
Heightened Def Con from 0.000478682 ++++++++to 0.000478683
Heightened Def Con from 0.000478683 ++++to 0.000478684
Heightened Def Con from 0.000478684 +++to 0.000478685
Heightened Def Con from 0.000478685 ++++++++to 0.000478686
Heightened Def Con from 0.000478688 +to 0.000478689
Heightened Def Con from 0.000478689 to 0.00047869
Heightened Def Con from 0.00047869 ++++++to 0.000478691
Heightened Def Con from 0.000478691 to 0.000478692
Heightened Def Con from 0.000478692 to 0.000478693
Heightened Def Con from 0.000478693 +to 0.000478694
Heightened Def Con from 0.000478694 +to 0.000478695
Heightened Def Con from 0.000478695 +++++++to 0.000478696
Heightened Def Con from 0.000478696 +to 0.000478697
Heightened Def Con from 0.000478697 +to 0.000478698
Heightened Def Con from 0.000478698 to 0.000478699
Heightened Def Con from 0.000478701 ++to 0.000478701
Heightened Def Con from 0.000478701 +to 0.000478702
Heightened Def Con from 0.000478702 +++++to 0.000478703
Heightened Def Con from 0.000478703 ++++++to 0.000478704
Heightened Def Con from 0.000478704 +++++++to 0.000478705
Heightened Def Con from 0.000478705 +++++++to 0.000478706
Heightened Def Con from 0.000478706 ++++++++to 0.000478707
Heightened Def Con from 0.000478709 +to 0.000478709
Heightened Def Con from 0.000478709 +to 0.000478709
Heightened Def Con from 0.000478709 ++++to 0.00047871
Heightened Def Con from 0.000478712 ++++++++to 0.000478713
Heightened Def Con from 0.000478713 +++++to 0.000478714
Heightened Def Con from 0.000478714 ++++++to 0.000478715
Heightened Def Con from 0.000478715 ++++++++to 0.000478716
Heightened Def Con from 0.000478716 +++to 0.000478717
Heightened Def Con from 0.000478717 +to 0.000478718
Heightened Def Con from 0.000478718 +++++to 0.000478719
Heightened Def Con from 0.000478719 ++++++++to 0.00047872
Heightened Def Con from 0.00047872 ++++++++to 0.000478721
Heightened Def Con from 0.000478721 ++to 0.000478721
Heightened Def Con from 0.000478721 to 0.000478721
Heightened Def Con from 0.000478721 +to 0.000478722
Heightened Def Con from 0.000478724 ++++++++to 0.000478725
Heightened Def Con from 0.000478725 ++++++++to 0.000478726
Heightened Def Con from 0.000478728 +++to 0.000478729
Heightened Def Con from 0.000478729 to 0.000478729
Heightened Def Con from 0.000478729 to 0.00047873
Heightened Def Con from 0.00047873 ++++++to 0.000478731
Heightened Def Con from 0.000478731 ++++++++to 0.000478732
Heightened Def Con from 0.000478732 +++++++to 0.000478733
Heightened Def Con from 0.000478735 ++++++to 0.000478736
Heightened Def Con from 0.000478736 ++++++to 0.000478737
Heightened Def Con from 0.000478737 +++++to 0.000478738
Heightened Def Con from 0.000478738 ++to 0.000478739
Heightened Def Con from 0.000478739 +++to 0.00047874
Heightened Def Con from 0.00047874 +to 0.000478741
Heightened Def Con from 0.000478741 ++++++++to 0.000478742
Heightened Def Con from 0.000478742 +++++++to 0.000478743
Heightened Def Con from 0.000478743 to 0.000478744
Heightened Def Con from 0.000478744 to 0.000478745
Heightened Def Con from 0.000478745 +++++to 0.000478746
Heightened Def Con from 0.000478746 to 0.000478747
Heightened Def Con from 0.000478747 +++++to 0.000478748
Heightened Def Con from 0.000478748 +++to 0.000478749
Heightened Def Con from 0.000478749 +++++to 0.00047875
Heightened Def Con from 0.00047875 ++++to 0.00047875
Heightened Def Con from 0.00047875 +++++to 0.000478751
Heightened Def Con from 0.000478751 ++++++++to 0.000478752
Heightened Def Con from 0.000478752 ++to 0.000478753
Heightened Def Con from 0.000478755 to 0.000478756
Heightened Def Con from 0.000478756 +++to 0.000478757
Heightened Def Con from 0.000478757 ++++++to 0.000478758
Heightened Def Con from 0.000478758 to 0.000478759
Heightened Def Con from 0.000478759 ++to 0.00047876
Heightened Def Con from 0.00047876 to 0.000478761
Heightened Def Con from 0.000478761 +++++to 0.000478762
Heightened Def Con from 0.000478764 to 0.000478765
Heightened Def Con from 0.000478765 +++++++++to 0.000478766
Heightened Def Con from 0.000478766 to 0.000478767
Heightened Def Con from 0.000478767 ++++to 0.000478767
Heightened Def Con from 0.000478767 ++++++++to 0.000478768
Heightened Def Con from 0.000478768 ++++++++to 0.000478769
Heightened Def Con from 0.000478769 ++++to 0.00047877
Heightened Def Con from 0.00047877 ++++++to 0.000478771
Heightened Def Con from 0.000478771 ++++++to 0.000478772
Heightened Def Con from 0.000478772 ++++++++to 0.000478773
Heightened Def Con from 0.000478773 ++to 0.000478774
Heightened Def Con from 0.000478776 ++to 0.000478777
Heightened Def Con from 0.000478777 +++++++to 0.000478778
Heightened Def Con from 0.000478778 ++++to 0.000478779
Heightened Def Con from 0.000478781 +++++++++to 0.000478782
Heightened Def Con from 0.000478782 +++++++to 0.000478782
Heightened Def Con from 0.000478782 +to 0.000478783
Heightened Def Con from 0.000478783 ++to 0.000478784
Heightened Def Con from 0.000478784 ++++to 0.000478784
Heightened Def Con from 0.000478784 to 0.000478785
Heightened Def Con from 0.000478785 to 0.000478786
Heightened Def Con from 0.000478786 +to 0.000478787
Heightened Def Con from 0.000478787 +to 0.000478788
Heightened Def Con from 0.000478788 ++to 0.000478789
Heightened Def Con from 0.000478789 +++++to 0.00047879
Heightened Def Con from 0.000478792 to 0.000478793
Heightened Def Con from 0.000478793 +++++to 0.000478794
Heightened Def Con from 0.000478794 to 0.000478795
Heightened Def Con from 0.000478795 +++++++to 0.000478796
Heightened Def Con from 0.000478796 ++to 0.000478796
Heightened Def Con from 0.000478796 +++++++to 0.000478797
Heightened Def Con from 0.000478797 ++++to 0.000478798
Heightened Def Con from 0.000478798 ++++++to 0.000478799
Heightened Def Con from 0.000478799 ++++++to 0.0004788
Heightened Def Con from 0.0004788 ++++++to 0.0004788
Heightened Def Con from 0.0004788 ++++++++to 0.000478801
Heightened Def Con from 0.000478801 ++++++to 0.000478802
Heightened Def Con from 0.000478802 ++++to 0.000478803
Heightened Def Con from 0.000478803 +++++++to 0.000478804
Heightened Def Con from 0.000478804 ++++to 0.000478805
Heightened Def Con from 0.000478805 +to 0.000478806
Heightened Def Con from 0.000478806 +++to 0.000478806
Heightened Def Con from 0.000478806 ++++++to 0.000478807
Heightened Def Con from 0.000478807 +++to 0.000478808
Heightened Def Con from 0.000478808 +++++to 0.000478809
Heightened Def Con from 0.000478809 +++to 0.000478809
Heightened Def Con from 0.000478809 +++to 0.000478809
Heightened Def Con from 0.000478809 ++to 0.00047881
Heightened Def Con from 0.00047881 +++to 0.000478811
Heightened Def Con from 0.000478811 +++++++to 0.000478812
Heightened Def Con from 0.000478812 +++++to 0.000478813
Heightened Def Con from 0.000478813 +++++++++to 0.000478814
Heightened Def Con from 0.000478814 +++++++to 0.000478815
Heightened Def Con from 0.000478815 +++++to 0.000478815
Heightened Def Con from 0.000478815 to 0.000478815
Heightened Def Con from 0.000478815 ++++++++to 0.000478816
Heightened Def Con from 0.000478816 +to 0.000478817
Heightened Def Con from 0.000478817 +to 0.000478818
Heightened Def Con from 0.000478818 to 0.000478819
Heightened Def Con from 0.000478819 +to 0.00047882
Heightened Def Con from 0.00047882 ++to 0.000478821
Heightened Def Con from 0.000478821 ++to 0.000478822
Heightened Def Con from 0.000478822 +++++to 0.000478823
Heightened Def Con from 0.000478823 +++++++to 0.000478824
Heightened Def Con from 0.000478824 +to 0.000478825
Heightened Def Con from 0.000478825 +++++++to 0.000478826
Heightened Def Con from 0.000478826 +++++to 0.000478827
Heightened Def Con from 0.000478827 ++to 0.000478828
Heightened Def Con from 0.000478828 ++++to 0.000478829
Heightened Def Con from 0.000478829 ++++++++to 0.00047883
Heightened Def Con from 0.00047883 +++++++to 0.000478831
Heightened Def Con from 0.000478831 ++++++++to 0.000478832
Heightened Def Con from 0.000478832 +to 0.000478833
Heightened Def Con from 0.000478833 ++++++to 0.000478834
Heightened Def Con from 0.000478834 +++to 0.000478835
Heightened Def Con from 0.000478835 ++++++++to 0.000478836
Heightened Def Con from 0.000478836 ++to 0.000478837
Heightened Def Con from 0.000478837 ++++++to 0.000478838
Heightened Def Con from 0.000478838 +++to 0.000478839
Heightened Def Con from 0.000478839 +++++++to 0.00047884
Heightened Def Con from 0.00047884 +++++to 0.00047884
Heightened Def Con from 0.00047884 ++++++++to 0.000478841
Heightened Def Con from 0.000478841 ++++++++to 0.000478842
Heightened Def Con from 0.000478842 ++++to 0.000478843
Heightened Def Con from 0.000478843 +to 0.000478844
Heightened Def Con from 0.000478846 ++to 0.000478847
Heightened Def Con from 0.000478847 +to 0.000478848
Heightened Def Con from 0.000478848 +to 0.000478849
Heightened Def Con from 0.000478851 +++++++to 0.000478852
Heightened Def Con from 0.000478852 to 0.000478852
Heightened Def Con from 0.000478852 +to 0.000478852
Heightened Def Con from 0.000478852 ++to 0.000478853
Heightened Def Con from 0.000478853 +++to 0.000478854
Heightened Def Con from 0.000478854 ++++++to 0.000478855
Heightened Def Con from 0.000478857 +to 0.000478858
Heightened Def Con from 0.000478858 ++++++++to 0.000478859
Heightened Def Con from 0.000478859 ++++++to 0.00047886
Heightened Def Con from 0.00047886 +++++++to 0.000478861
Heightened Def Con from 0.000478861 to 0.000478862
Heightened Def Con from 0.000478862 ++++++to 0.000478863
Heightened Def Con from 0.000478863 ++++++++to 0.000478864
Heightened Def Con from 0.000478864 +++++++to 0.000478865
Heightened Def Con from 0.000478865 +++++++to 0.000478866
Heightened Def Con from 0.000478866 +to 0.000478867
Heightened Def Con from 0.000478867 +++to 0.000478867
Heightened Def Con from 0.000478867 to 0.000478868
Heightened Def Con from 0.000478868 ++++++to 0.000478869
Heightened Def Con from 0.000478869 +++++to 0.000478869
Heightened Def Con from 0.000478869 +++++to 0.000478869
Heightened Def Con from 0.000478869 +++++++to 0.00047887
Heightened Def Con from 0.00047887 +++++++to 0.000478871
Heightened Def Con from 0.000478871 +++++++to 0.000478872
Heightened Def Con from 0.000478872 ++++++++to 0.000478873
Heightened Def Con from 0.000478873 +to 0.000478873
Heightened Def Con from 0.000478873 +to 0.000478874
Heightened Def Con from 0.000478874 to 0.000478875
Heightened Def Con from 0.000478875 +++++++to 0.000478876
Heightened Def Con from 0.000478876 +++to 0.000478877
Heightened Def Con from 0.000478877 ++to 0.000478878

Date: Mon Nov 19 10:49:32 2018
Total elapsed time: 231.511 seconds.

tnom = 27
temp = 27
method = modified trap
totiter = 15424557
traniter = 15424056
tranpoints = 1416191
accept = 152342
rejected = 1388177
matrix size = 46
fillins = 169
solver = Normal
Matrix Compiler1: 17.77 KB object code size  4.6/2.5/[1.6]
Matrix Compiler2: 7.18 KB object code size  1.5/1.5/[0.7]

