Circuit: * E:\ltspice\circuit.asc

Early termination of direct N-R iteration.
Direct Newton iteration failed to find .op point.  (Use ".option noopiter" to skip.)
Starting Gmin stepping
Gmin = 10
Gmin = 1.07374
Gmin = 0.115292
vernier = 0.5
vernier = 0.25
Gmin = 0.0373125
vernier = 0.125
vernier = 0.0625
vernier = 0.03125
vernier = 0.015625
vernier = 0.0078125
vernier = 0.00390625
vernier = 0.00195313
vernier = 0.000976563
vernier = 0.000488281
Gmin = 0.0373125
Gmin = 0
Gmin stepping failed

Starting source stepping with srcstepmethod=0
Source Step = 3.0303%
Source Step = 33.3333%
Source Step = 63.6364%
Source Step = 93.9394%
Source stepping succeeded in finding the operating point.


Date: Tue Nov 20 20:59:27 2018
Total elapsed time: 1.152 seconds.

tnom = 27
temp = 27
method = modified trap
totiter = 6050
traniter = 4122
tranpoints = 1733
accept = 1476
rejected = 257
matrix size = 108
fillins = 1484
solver = Normal
Thread vector: 8.4/7.3[2] 3.2/3.1[1] 2.6/3.9[1] 1.1/2.9[1]  2592/500
Matrix Compiler1: 227.25 KB object code size  37.5/17.4/[7.7]
Matrix Compiler2: 33.45 KB object code size  7.9/4.0/[2.4]

