Circuit: * E:\ltspice\circuit.asc

Early termination of direct N-R iteration.
Direct Newton iteration failed to find .op point.  (Use ".option noopiter" to skip.)
Starting Gmin stepping
Gmin = 10
Gmin = 1.07374
Gmin = 0.115292
Gmin = 0.0123794
Gmin = 0.00132923
Gmin = 0.000142725
vernier = 0.5
vernier = 0.25
vernier = 0.333333
Gmin = 7.78364e-005
vernier = 0.166667
vernier = 0.0833333
vernier = 0.0416667
Gmin = 7.76389e-005
vernier = 0.0555555
vernier = 0.0277778
vernier = 0.0138889
vernier = 0.00694444
Gmin = 7.32145e-005
vernier = 0.00347222
vernier = 0.00462963
Gmin = 7.2603e-005
vernier = 0.00231481
vernier = 0.00115741
vernier = 0.000578703
vernier = 0.000434027
Gmin = 7.25663e-005
Gmin = 0
Gmin stepping failed

Starting source stepping with srcstepmethod=0
Source Step = 3.0303%
vernier = 0.25
Source Step = 0.0177557%
Starting source stepping with srcstepmethod=1
Source Step = 3.0303%
vernier = 0.25
Source stepping failed

Pseudo Transient succeeded in finding the operating point at 512.662 ms.

Date: Tue Nov 20 22:00:27 2018
Total elapsed time: 3.131 seconds.

tnom = 27
temp = 27
method = modified trap
totiter = 14749
traniter = 5509
tranpoints = 2114
accept = 1690
rejected = 427
matrix size = 68
fillins = 745
solver = Alternate
Matrix Compiler1: 168.95 KB object code size  27.0/20.2/[15.6]
Matrix Compiler2: 21.72 KB object code size  2.3/2.8/[1.6]

