Circuit: * E:\ltspice\circuit.asc

Early termination of direct N-R iteration.
Direct Newton iteration failed to find .op point.  (Use ".option noopiter" to skip.)
Starting Gmin stepping
Gmin = 10
vernier = 0.5
vernier = 0.25
vernier = 0.125
vernier = 0.0625
Gmin = 7.52941
vernier = 0.03125
vernier = 0.015625
vernier = 0.0078125
vernier = 0.00390625
Gmin = 7.35611
vernier = 0.00195313
vernier = 0.000976563
vernier = 0.000488281
Gmin = 0
Gmin stepping failed

Starting source stepping with srcstepmethod=0
Source Step = 3.0303%
vernier = 0.25
Source Step = 0.0177557%
Starting source stepping with srcstepmethod=1
Source Step = 3.0303%
vernier = 0.25
Source stepping failed

Pseudo Transient succeeded in finding the operating point at 327.689 ms.

Date: Wed Nov 21 21:06:58 2018
Total elapsed time: 2.693 seconds.

tnom = 27
temp = 27
method = modified trap
totiter = 10231
traniter = 2643
tranpoints = 1222
accept = 1139
rejected = 87
matrix size = 76
fillins = 657
solver = Alternate
Matrix Compiler1: 114.51 KB object code size  24.3/14.2/[13.1]
Matrix Compiler2: 20.96 KB object code size  3.4/3.1/[1.2]

