Circuit: * C:\ltspice\Draft3.asc

Fatal Error: Voltage source V1 and voltage source V:X1:1 are paralleled making an over-defined circuit matrix.
You will need to correct the circuit or add some series resistance.
