Circuit: * E:\ltspice\Draft1.asc


Date: Wed Nov 28 18:47:52 2018
Total elapsed time: 0.079 seconds.

tnom = 27
temp = 27
method = trap
totiter = 0
traniter = 0
tranpoints = 0
accept = 0
rejected = 0
matrix size = 7
fillins = 0
solver = Alternate

