Circuit: * E:\ltspice\Draft4.asc

Direct Newton iteration for .op point succeeded.

Date: Wed Nov 28 18:54:59 2018
Total elapsed time: 0.062 seconds.

tnom = 27
temp = 27
method = modified trap
totiter = 2240
traniter = 2236
tranpoints = 1042
accept = 1042
rejected = 0
matrix size = 7
fillins = 0
solver = Alternate
Matrix Compiler1:      15 opcodes  0.1/[0.0]/0.1
Matrix Compiler2: 545 bytes object code size  0.1/0.1/[0.0]

