Circuit: * E:\ltspice\filter.asc

WARNING: Node VIN is floating.

WARNING: Less than two connections to node VIN.  This node is used by C1.
.OP point found by inspection.

Date: Wed Nov 28 18:42:37 2018
Total elapsed time: 0.125 seconds.

tnom = 27
temp = 27
method = modified trap
totiter = 2082
traniter = 2082
tranpoints = 1042
accept = 1042
rejected = 0
matrix size = 2
fillins = 0
solver = Alternate
Matrix Compiler1: 70 bytes object code size  0.5/0.0/[0.0]
Matrix Compiler2: off  [0.0]/0.0/0.0

