Circuit: * C:\ltspice\filter.asc

Direct Newton iteration for .op point succeeded.

Date: Mon Nov 26 13:51:33 2018
Total elapsed time: 0.031 seconds.

tnom = 27
temp = 27
method = modified trap
totiter = 2085
traniter = 2082
tranpoints = 1042
accept = 1042
rejected = 0
matrix size = 3
fillins = 0
solver = Alternate
Matrix Compiler1: 96 bytes object code size  0.1/0.0/[0.0]
Matrix Compiler2: 181 bytes object code size  0.1/0.1/[0.1]

