Circuit: * C:\ltspice\poweramp.asc

Direct Newton iteration for .op point succeeded.

Date: Mon Nov 26 14:04:59 2018
Total elapsed time: 0.047 seconds.

tnom = 27
temp = 27
method = modified trap
totiter = 2445
traniter = 2441
tranpoints = 1042
accept = 1042
rejected = 0
matrix size = 7
fillins = 0
solver = Alternate
Matrix Compiler1: 280 bytes object code size  0.2/0.2/[0.2]
Matrix Compiler2: 545 bytes object code size  0.1/0.2/[0.1]

