Circuit: * C:\ltspice\preamp.asc

Direct Newton iteration failed to find .op point.  (Use ".option noopiter" to skip.)
Starting Gmin stepping
Gmin = 10
vernier = 0.5
vernier = 0.25
vernier = 0.125
Gmin = 5.841
vernier = 0.0625
vernier = 0.03125
vernier = 0.015625
vernier = 0.0078125
Gmin = 5.97672
vernier = 0.00390625
vernier = 0.00195313
vernier = 0.000976563
vernier = 0.000488281
Gmin = 5.98328
Gmin = 0
Gmin stepping failed

Starting source stepping with srcstepmethod=0
Source Step = 3.0303%
vernier = 0.25
Source Step = 0.0177557%
Starting source stepping with srcstepmethod=1
Source Step = 3.0303%
vernier = 0.25
Source stepping failed

Pseudo Transient succeeded in finding the operating point at 327.685 ms.

Date: Mon Nov 26 14:00:28 2018
Total elapsed time: 1.063 seconds.

tnom = 27
temp = 27
method = modified trap
totiter = 9601
traniter = 2084
tranpoints = 1043
accept = 1042
rejected = 3
matrix size = 35
fillins = 79
solver = Alternate
Matrix Compiler1: 7.69 KB object code size  2.7/2.3/[1.6]
Matrix Compiler2: 5.25 KB object code size  1.6/2.6/[1.0]

